
**** 03/15/22 16:36:21 ******* PSpice Lite (March 2016) ******* ID# 10813 ****

  


 ****     CIRCUIT DESCRIPTION


******************************************************************************



vcc 1 0 dc 15v
rb1 1 2 100k
rb2 2 0 50k
rc 1 3 4k
re 4 0 3k
q1 3 2 4 aaa
.model aaa npn(level=1 bf=100 is=1.8e-15a )
.op
.probe
.end

**** 03/15/22 16:36:21 ******* PSpice Lite (March 2016) ******* ID# 10813 ****

  


 ****     BJT MODEL PARAMETERS


******************************************************************************




               aaa             
               NPN             
       LEVEL    1            
          IS    1.800000E-15 
          BF  100            
          NF    1            
          BR    1            
          NR    1            
         ISS    0            
          RE    0            
          RC    0            
         CJE    0            
         VJE     .75         
         CJC    0            
         VJC     .75         
         MJC     .33         
        XCJC    1            
         CJS    0            
         VJS     .75         
          KF    0            
          AF    1            
          CN    2.42         
           D     .87         


**** 03/15/22 16:36:21 ******* PSpice Lite (March 2016) ******* ID# 10813 ****

  


 ****     SMALL SIGNAL BIAS SOLUTION       TEMPERATURE =   27.000 DEG C


******************************************************************************



 NODE   VOLTAGE     NODE   VOLTAGE     NODE   VOLTAGE     NODE   VOLTAGE


(    1)   15.0000  (    2)    4.5744  (    3)    9.8929  (    4)    3.8686  




    VOLTAGE SOURCE CURRENTS
    NAME         CURRENT

    vcc         -1.381E-03

    TOTAL POWER DISSIPATION   2.07E-02  WATTS


**** 03/15/22 16:36:21 ******* PSpice Lite (March 2016) ******* ID# 10813 ****

  


 ****     OPERATING POINT INFORMATION      TEMPERATURE =   27.000 DEG C


******************************************************************************






**** BIPOLAR JUNCTION TRANSISTORS


NAME         q1        
MODEL        aaa       
IB           1.28E-05 
IC           1.28E-03 
VBE          7.06E-01 
VBC         -5.32E+00 
VCE          6.02E+00 
BETADC       1.00E+02 
GM           4.94E-02 
RPI          2.03E+03 
RX           0.00E+00 
RO           1.00E+12 
CBE          0.00E+00 
CBC          0.00E+00 
CJS          0.00E+00 
BETAAC       1.00E+02 
CBX/CBX2     0.00E+00 
FT/FT2       7.86E+17 



          JOB CONCLUDED

**** 03/15/22 16:36:21 ******* PSpice Lite (March 2016) ******* ID# 10813 ****

  


 ****     JOB STATISTICS SUMMARY


******************************************************************************



  Total job time (using Solver 1)   =        0.00
