
**** 03/15/22 15:34:57 ******* PSpice Lite (March 2016) ******* ID# 10813 ****

  


 ****     CIRCUIT DESCRIPTION


******************************************************************************



vdd 1 0 dc 10v
rd 1 2 50k
r1 2 3 20meg
r2 3 0 20meg
m1 2 3 0 0 aaa l=10u w=50u 
.model aaa nmos(kp=20u vto=1v lambda=0)
.op
.probe
.end

**** 03/15/22 15:34:57 ******* PSpice Lite (March 2016) ******* ID# 10813 ****

  


 ****     MOSFET MODEL PARAMETERS


******************************************************************************




               aaa             
               NMOS            
       LEVEL    1            
           L  100.000000E-06 
           W  100.000000E-06 
         VTO    1            
          KP   20.000000E-06 
       GAMMA    0            
         PHI     .6          
      LAMBDA    0            
          IS   10.000000E-15 
          JS    0            
          PB     .8          
        PBSW     .8          
          CJ    0            
        CJSW    0            
        CGSO    0            
        CGDO    0            
        CGBO    0            
         TOX    0            
          XJ    0            
       UCRIT   10.000000E+03 
      DIOMOD    1            
         VFB    0            
        LETA    0            
        WETA    0            
          U0    0            
        TEMP    0            
         VDD    5            
       XPART    0            


**** 03/15/22 15:34:57 ******* PSpice Lite (March 2016) ******* ID# 10813 ****

  


 ****     SMALL SIGNAL BIAS SOLUTION       TEMPERATURE =   27.000 DEG C


******************************************************************************



 NODE   VOLTAGE     NODE   VOLTAGE     NODE   VOLTAGE     NODE   VOLTAGE


(    1)   10.0000  (    2)    4.8647  (    3)    2.4324  




    VOLTAGE SOURCE CURRENTS
    NAME         CURRENT

    vdd         -1.027E-04

    TOTAL POWER DISSIPATION   1.03E-03  WATTS


**** 03/15/22 15:34:57 ******* PSpice Lite (March 2016) ******* ID# 10813 ****

  


 ****     OPERATING POINT INFORMATION      TEMPERATURE =   27.000 DEG C


******************************************************************************






**** MOSFETS


NAME         m1        
MODEL        aaa       
ID           1.03E-04 
VGS          2.43E+00 
VDS          4.86E+00 
VBS          0.00E+00 
VTH          1.00E+00 
VDSAT        1.43E+00 
Lin0/Sat1   -1.00E+00 
if          -1.00E+00 
ir          -1.00E+00 
TAU         -1.00E+00 
GM           1.43E-04 
GDS          0.00E+00 
GMB          0.00E+00 
CBD          0.00E+00 
CBS          0.00E+00 
CGSOV        0.00E+00 
CGDOV        0.00E+00 
CGBOV        0.00E+00 
CGS          0.00E+00 
CGD          0.00E+00 
CGB          0.00E+00 

          JOB CONCLUDED

**** 03/15/22 15:34:57 ******* PSpice Lite (March 2016) ******* ID# 10813 ****

  


 ****     JOB STATISTICS SUMMARY


******************************************************************************



  Total job time (using Solver 1)   =         .02
