
**** 05/20/22 12:41:22 ******* PSpice Lite (March 2016) ******* ID# 10813 ****

 *circuit description


 ****     CIRCUIT DESCRIPTION


******************************************************************************



vdd vdd 0 dc 1.5
*vi vi 0 sin(0V 10V 60HZ)
vi vi 0 dc 0.8146295
*diode model descriotion

M1 1 vi vdd vdd d_mos L=1.8u W=29.7u
M2 1 vi 0 0 e_mos L=1.8u W=2.7u

.model e_mos nmos (KP=300u Vto=0.5 lambda=0.02)
.model d_mos pmos (KP=75u Vto=-0.5 lambda=0.02)

*analysis requests
*.TRAN 0.01ms 40ms 0ms 0.01ms
.dc vi 0 2 0.01
.op
.probe
.end

**** 05/20/22 12:41:22 ******* PSpice Lite (March 2016) ******* ID# 10813 ****

 *circuit description


 ****     MOSFET MODEL PARAMETERS


******************************************************************************




               e_mos           d_mos           
               NMOS            PMOS            
       LEVEL    1               1            
           L  100.000000E-06  100.000000E-06 
           W  100.000000E-06  100.000000E-06 
         VTO     .5             -.5          
          KP  300.000000E-06   75.000000E-06 
       GAMMA    0               0            
         PHI     .6              .6          
      LAMBDA     .02             .02         
          IS   10.000000E-15   10.000000E-15 
          JS    0               0            
          PB     .8              .8          
        PBSW     .8              .8          
          CJ    0               0            
        CJSW    0               0            
        CGSO    0               0            
        CGDO    0               0            
        CGBO    0               0            
         TOX    0               0            
          XJ    0               0            
       UCRIT   10.000000E+03   10.000000E+03 
      DIOMOD    1               1            
         VFB    0               0            
        LETA    0               0            
        WETA    0               0            
          U0    0               0            
        TEMP    0               0            
         VDD    5               5            
       XPART    0               0            


**** 05/20/22 12:41:22 ******* PSpice Lite (March 2016) ******* ID# 10813 ****

 *circuit description


 ****     SMALL SIGNAL BIAS SOLUTION       TEMPERATURE =   27.000 DEG C


******************************************************************************



 NODE   VOLTAGE     NODE   VOLTAGE     NODE   VOLTAGE     NODE   VOLTAGE


(    1)     .2630  (   vi)     .8146  (  vdd)    1.5000  




    VOLTAGE SOURCE CURRENTS
    NAME         CURRENT

    vdd         -2.179E-05
    vi           0.000E+00

    TOTAL POWER DISSIPATION   3.27E-05  WATTS


**** 05/20/22 12:41:22 ******* PSpice Lite (March 2016) ******* ID# 10813 ****

 *circuit description


 ****     OPERATING POINT INFORMATION      TEMPERATURE =   27.000 DEG C


******************************************************************************






**** MOSFETS


NAME         M1          M2        
MODEL        d_mos       e_mos     
ID          -2.18E-05    2.18E-05 
VGS         -6.85E-01    8.15E-01 
VDS         -1.24E+00    2.63E-01 
VBS          0.00E+00    0.00E+00 
VTH         -5.00E-01    5.00E-01 
VDSAT       -1.85E-01    3.15E-01 
Lin0/Sat1   -1.00E+00   -1.00E+00 
if          -1.00E+00   -1.00E+00 
ir          -1.00E+00   -1.00E+00 
TAU         -1.00E+00   -1.00E+00 
GM           2.35E-04    1.19E-04 
GDS          4.25E-07    2.38E-05 
GMB          0.00E+00    0.00E+00 
CBD          0.00E+00    0.00E+00 
CBS          0.00E+00    0.00E+00 
CGSOV        0.00E+00    0.00E+00 
CGDOV        0.00E+00    0.00E+00 
CGBOV        0.00E+00    0.00E+00 
CGS          0.00E+00    0.00E+00 
CGD          0.00E+00    0.00E+00 
CGB          0.00E+00    0.00E+00 

          JOB CONCLUDED

**** 05/20/22 12:41:22 ******* PSpice Lite (March 2016) ******* ID# 10813 ****

 *circuit description


 ****     JOB STATISTICS SUMMARY


******************************************************************************



  Total job time (using Solver 1)   =         .03
