
**** 06/10/21 16:56:02 ******* PSpice Lite (March 2016) ******* ID# 10813 ****

  


 ****     CIRCUIT DESCRIPTION


******************************************************************************



*circuit description
vdd vdd 0 dc 3
*vi vi 0 sin(0V 10V 60HZ)
vi vi 0 pulse(0 3 0 0 0 10u 20u)
v2 1 2 dc 0
*diode model descriotion
c1 2 0 1p
M1 1 vi vdd vdd d_mos L=0.18u W=0.69u
M2 1 vi 0 0 e_mos L=0.18u W=0.27u

.model d_mos pmos (KP=75u Vto=-0.5 lambda=0.02 Tox=100n, Cgso=2.288n, Cgdo=138.5p, Cbd=899.2p)
.model e_mos nmos (KP=300u Vto=0.5 lambda=0.02 Tox=100n, Cgso=73.61p, Cgdo=6.487p, Cbd=74.46p)


*analysis requests
.tran 0.1u 40u 0u 0.001u
*.TRAN 0.01ms 40ms 0ms 0.01ms
*.dc vi 0 2 0.01
.op
.probe
.end

**** 06/10/21 16:56:02 ******* PSpice Lite (March 2016) ******* ID# 10813 ****

  


 ****     MOSFET MODEL PARAMETERS


******************************************************************************




               d_mos           e_mos           
               PMOS            NMOS            
       LEVEL    1               1            
           L  100.000000E-06  100.000000E-06 
           W  100.000000E-06  100.000000E-06 
         VTO    -.5              .5          
          KP   75.000000E-06  300.000000E-06 
       GAMMA    0               0            
         PHI     .6              .6          
      LAMBDA     .02             .02         
          IS   10.000000E-15   10.000000E-15 
          JS    0               0            
          PB     .8              .8          
        PBSW     .8              .8          
         CBD  899.200000E-12   74.460000E-12 
          CJ    0               0            
        CJSW    0               0            
        CGSO    2.288000E-09   73.610000E-12 
        CGDO  138.500000E-12    6.487000E-12 
        CGBO    0               0            
         TOX  100.000000E-09  100.000000E-09 
          XJ    0               0            
       UCRIT   10.000000E+03   10.000000E+03 
      DIOMOD    1               1            
         VFB    0               0            
        LETA    0               0            
        WETA    0               0            
          U0    0               0            
        TEMP    0               0            
         VDD    5               5            
       XPART    0               0            


**** 06/10/21 16:56:02 ******* PSpice Lite (March 2016) ******* ID# 10813 ****

  


 ****     SMALL SIGNAL BIAS SOLUTION       TEMPERATURE =   27.000 DEG C


******************************************************************************



 NODE   VOLTAGE     NODE   VOLTAGE     NODE   VOLTAGE     NODE   VOLTAGE


(    1)    3.0000  (    2)    3.0000  (   vi)    0.0000  (  vdd)    3.0000  




    VOLTAGE SOURCE CURRENTS
    NAME         CURRENT

    vdd         -3.010E-12
    vi           0.000E+00
    v2           0.000E+00

    TOTAL POWER DISSIPATION   9.03E-12  WATTS


**** 06/10/21 16:56:02 ******* PSpice Lite (March 2016) ******* ID# 10813 ****

  


 ****     OPERATING POINT INFORMATION      TEMPERATURE =   27.000 DEG C


******************************************************************************






**** MOSFETS


NAME         M1          M2        
MODEL        d_mos       e_mos     
ID          -3.01E-12    3.01E-12 
VGS         -3.00E+00    0.00E+00 
VDS         -4.19E-09    3.00E+00 
VBS          0.00E+00    0.00E+00 
VTH         -5.00E-01    5.00E-01 
VDSAT       -2.50E+00    0.00E+00 
Lin0/Sat1   -1.00E+00   -1.00E+00 
if          -1.00E+00   -1.00E+00 
ir          -1.00E+00   -1.00E+00 
TAU         -1.00E+00   -1.00E+00 
GM           1.20E-12    0.00E+00 
GDS          7.19E-04    0.00E+00 
GMB          0.00E+00    0.00E+00 
CBD          8.99E-10    3.42E-11 
CBS          0.00E+00    0.00E+00 
CGSOV        1.58E-15    1.99E-17 
CGDOV        9.56E-17    1.75E-18 
CGBOV        0.00E+00    0.00E+00 
CGS          2.14E-17    0.00E+00 
CGD          2.14E-17    0.00E+00 
CGB          0.00E+00    0.00E+00 
**** 06/10/21 16:56:02 ******* PSpice Lite (March 2016) ******* ID# 10813 ****

  


 ****     INITIAL TRANSIENT SOLUTION       TEMPERATURE =   27.000 DEG C


******************************************************************************



 NODE   VOLTAGE     NODE   VOLTAGE     NODE   VOLTAGE     NODE   VOLTAGE


(    1)    3.0000  (    2)    3.0000  (   vi)    0.0000  (  vdd)    3.0000  




    VOLTAGE SOURCE CURRENTS
    NAME         CURRENT

    vdd         -3.010E-12
    vi           0.000E+00
    v2           0.000E+00

    TOTAL POWER DISSIPATION   9.03E-12  WATTS



          JOB CONCLUDED

**** 06/10/21 16:56:02 ******* PSpice Lite (March 2016) ******* ID# 10813 ****

  


 ****     JOB STATISTICS SUMMARY


******************************************************************************



  Total job time (using Solver 1)   =         .83

**** 06/10/21 16:56:03 ******* PSpice Lite (March 2016) ******* ID# 10813 ****

  


 ****     CIRCUIT DESCRIPTION


******************************************************************************



