
**** 06/03/21 23:48:14 ******* PSpice Lite (March 2016) ******* ID# 10813 ****

 *circuit description


 ****     CIRCUIT DESCRIPTION


******************************************************************************



vdd vdd 0 dc 5
*vi vi 0 sin(0V 10V 60HZ)
vi vi 0 dc 2.35918
*diode model descriotion

M1 1 vi vdd vdd d_mos L=1.8u W=8.1u
M2 1 vi 0 0 e_mos L=1.8u W=2.7u

.model e_mos nmos (KP=300u Vto=0.5 lambda=0.02)
.model d_mos pmos (KP=75u Vto=-0.5 lambda=0.02)

*analysis requests
*.TRAN 0.01ms 40ms 0ms 0.01ms
.dc vi 0 5 0.01
.op
.probe
.end

**** 06/03/21 23:48:14 ******* PSpice Lite (March 2016) ******* ID# 10813 ****

 *circuit description


 ****     MOSFET MODEL PARAMETERS


******************************************************************************




               e_mos           d_mos           
               NMOS            PMOS            
       LEVEL    1               1            
           L  100.000000E-06  100.000000E-06 
           W  100.000000E-06  100.000000E-06 
         VTO     .5             -.5          
          KP  300.000000E-06   75.000000E-06 
       GAMMA    0               0            
         PHI     .6              .6          
      LAMBDA     .02             .02         
          IS   10.000000E-15   10.000000E-15 
          JS    0               0            
          PB     .8              .8          
        PBSW     .8              .8          
          CJ    0               0            
        CJSW    0               0            
        CGSO    0               0            
        CGDO    0               0            
        CGBO    0               0            
         TOX    0               0            
          XJ    0               0            
       UCRIT   10.000000E+03   10.000000E+03 
      DIOMOD    1               1            
         VFB    0               0            
        LETA    0               0            
        WETA    0               0            
          U0    0               0            
        TEMP    0               0            
         VDD    5               5            
       XPART    0               0            


**** 06/03/21 23:48:14 ******* PSpice Lite (March 2016) ******* ID# 10813 ****

 *circuit description


 ****     SMALL SIGNAL BIAS SOLUTION       TEMPERATURE =   27.000 DEG C


******************************************************************************



 NODE   VOLTAGE     NODE   VOLTAGE     NODE   VOLTAGE     NODE   VOLTAGE


(    1)    2.3537  (   vi)    2.3592  (  vdd)    5.0000  




    VOLTAGE SOURCE CURRENTS
    NAME         CURRENT

    vdd         -8.143E-04
    vi           0.000E+00

    TOTAL POWER DISSIPATION   4.07E-03  WATTS


**** 06/03/21 23:48:14 ******* PSpice Lite (March 2016) ******* ID# 10813 ****

 *circuit description


 ****     OPERATING POINT INFORMATION      TEMPERATURE =   27.000 DEG C


******************************************************************************






**** MOSFETS


NAME         M1          M2        
MODEL        d_mos       e_mos     
ID          -8.14E-04    8.14E-04 
VGS         -2.64E+00    2.36E+00 
VDS         -2.65E+00    2.35E+00 
VBS          0.00E+00    0.00E+00 
VTH         -5.00E-01    5.00E-01 
VDSAT       -2.14E+00    1.86E+00 
Lin0/Sat1   -1.00E+00   -1.00E+00 
if          -1.00E+00   -1.00E+00 
ir          -1.00E+00   -1.00E+00 
TAU         -1.00E+00   -1.00E+00 
GM           7.61E-04    8.76E-04 
GDS          1.55E-05    1.56E-05 
GMB          0.00E+00    0.00E+00 
CBD          0.00E+00    0.00E+00 
CBS          0.00E+00    0.00E+00 
CGSOV        0.00E+00    0.00E+00 
CGDOV        0.00E+00    0.00E+00 
CGBOV        0.00E+00    0.00E+00 
CGS          0.00E+00    0.00E+00 
CGD          0.00E+00    0.00E+00 
CGB          0.00E+00    0.00E+00 

          JOB CONCLUDED

**** 06/03/21 23:48:14 ******* PSpice Lite (March 2016) ******* ID# 10813 ****

 *circuit description


 ****     JOB STATISTICS SUMMARY


******************************************************************************



  Total job time (using Solver 1)   =         .08
