
**** 05/20/21 14:55:05 ******* PSpice Lite (March 2016) ******* ID# 10813 ****

 ******************************************************************


 ****     CIRCUIT DESCRIPTION


******************************************************************************



* High *
*******************************************************************
vdd vdd 0 dc 20
vs vs 0 ac 200m
r1 2 vdd 560k
r2 2 0 82k
rs vs 1 50
rd vdd 3 390
rl 4 0 390
c1 1 2 200u
c2 3 4 200u
M1 3 2 0 0 M2n6845 L=2u W=0.12


*.model M2n7000 NMOS(L=2u W=0.12 Kp=1.073u Vto=1.73 Lambda=0.002 Tox=2u Cgso=73.61p Cgdo=6.487p Cbd=74.46p)

*.model M2n7000 NMOS(Level=1 Gamma=0 Delta=0 Eta=0 Theta=0 Kappa=0.2
*+ Vmax=0 Xj=0 Tox=2u Uo=600 Phi=.6 Kp=1.073u W=.12 L=2u Rs=20m Vto=1.73
*+ Rd=.5489 Rds=48MEG Cgso=73.61p Cgdo=6.487p Cbd=74.46p Mj=.5 Pb=.8
*+ Fc=.5 Rg=546.2 Is=10f N=1 Rb=1m Lambda=0.002) 

.model M2N6845 PMOS(Level=1 Gamma=0 Delta=0 Eta=0 Theta=0 Kappa=0.2
+ Vmax=0 Xj=0 Tox=100n Uo=300 Phi=.6 Rs=.284 Kp=10.43u W=.68 L=2u
+ Vto=-3.533 Rd=.1672 Rds=444.4MEG Cbd=899.2p Pb=.8 Mj=.5 Fc=.5
+ Cgso=2.288n Cgdo=138.5p Rg=7.701 Is=793.1f N=3 Tt=425n Lambda=0.002)

*********************************************************************
* MEASURE OBJECT *
*********************************************************************
.op
.ac dec 10 10khz 50Meghz
.plot ac vdb(4)
.probe
.end 

**** 05/20/21 14:55:05 ******* PSpice Lite (March 2016) ******* ID# 10813 ****

 ******************************************************************


 ****     MOSFET MODEL PARAMETERS


******************************************************************************




               M2n6845         
               PMOS            
       LEVEL    1            
           L    2.000000E-06 
           W     .68         
         VTO   -3.533        
          KP   10.430000E-06 
       GAMMA    0            
         PHI     .6          
      LAMBDA    2.000000E-03 
          RD     .1672       
          RS     .284        
          RG    7.701        
         RDS  444.400000E+06 
          IS  793.100000E-15 
          JS    0            
           N    3            
          PB     .8          
        PBSW     .8          
         CBD  899.200000E-12 
          CJ    0            
        CJSW    0            
          TT  425.000000E-09 
        CGSO    2.288000E-09 
        CGDO  138.500000E-12 
        CGBO    0            
         TOX  100.000000E-09 
          XJ    0            
          UO  300            
       UCRIT   10.000000E+03 
       DELTA    0            
         ETA    0            
      DIOMOD    1            
         VFB    0            
        LETA    0            
        WETA    0            
          U0    0            
        TEMP    0            
         VDD    5            
       XPART    0            


**** 05/20/21 14:55:05 ******* PSpice Lite (March 2016) ******* ID# 10813 ****

 ******************************************************************


 ****     SMALL SIGNAL BIAS SOLUTION       TEMPERATURE =   27.000 DEG C


******************************************************************************



 NODE   VOLTAGE     NODE   VOLTAGE     NODE   VOLTAGE     NODE   VOLTAGE


(    1)    0.0000  (    2)    2.5545  (    3)    1.9313  (    4)    0.0000      

(   vs)    0.0000  (  vdd)   20.0000  




    VOLTAGE SOURCE CURRENTS
    NAME         CURRENT

    vdd         -4.636E-02
    vs           0.000E+00

    TOTAL POWER DISSIPATION   9.27E-01  WATTS


**** 05/20/21 14:55:05 ******* PSpice Lite (March 2016) ******* ID# 10813 ****

 ******************************************************************


 ****     OPERATING POINT INFORMATION      TEMPERATURE =   27.000 DEG C


******************************************************************************






**** MOSFETS


NAME         M1        
MODEL        M2n6845   
ID           4.63E-02 
VGS          2.55E+00 
VDS          1.93E+00 
VBS          0.00E+00 
VTH         -3.53E+00 
VDSAT        0.00E+00 
Lin0/Sat1   -1.00E+00 
if          -1.00E+00 
ir          -1.00E+00 
TAU         -1.00E+00 
GM           0.00E+00 
GDS          2.25E-09 
GMB          0.00E+00 
CBD          2.57E-07 
CBS          4.77E-18 
CGSOV        2.75E-10 
CGDOV        1.66E-11 
CGBOV        0.00E+00 
CGS          0.00E+00 
CGD          0.00E+00 
CGB          8.29E-11 
**** 05/20/21 14:55:05 ******* PSpice Lite (March 2016) ******* ID# 10813 ****

 ******************************************************************


 ****     AC ANALYSIS                      TEMPERATURE =   27.000 DEG C


******************************************************************************



  FREQ        VDB(4)      


(*)----------   -1.3000E+02  -1.2000E+02  -1.1000E+02  -1.0000E+02  -9.0000E+01
                       _ _ _ _ _ _ _ _ _ _ _ _ _ _ _ _ _ _ _ _ _ _ _ _ _ _ _
  1.000E+04 -1.292E+02 .*           .            .            .            .
  1.259E+04 -1.272E+02 .   *        .            .            .            .
  1.585E+04 -1.252E+02 .     *      .            .            .            .
  1.995E+04 -1.232E+02 .        *   .            .            .            .
  2.512E+04 -1.212E+02 .          * .            .            .            .
  3.162E+04 -1.192E+02 .            .*           .            .            .
  3.981E+04 -1.173E+02 .            .   *        .            .            .
  5.012E+04 -1.153E+02 .            .     *      .            .            .
  6.310E+04 -1.133E+02 .            .        *   .            .            .
  7.943E+04 -1.114E+02 .            .          * .            .            .
  1.000E+05 -1.095E+02 .            .            .*           .            .
  1.259E+05 -1.077E+02 .            .            .  *         .            .
  1.585E+05 -1.059E+02 .            .            .    *       .            .
  1.995E+05 -1.043E+02 .            .            .      *     .            .
  2.512E+05 -1.028E+02 .            .            .        *   .            .
  3.162E+05 -1.016E+02 .            .            .          * .            .
  3.981E+05 -1.005E+02 .            .            .           *.            .
  5.012E+05 -9.972E+01 .            .            .            *            .
  6.310E+05 -9.912E+01 .            .            .            .*           .
  7.943E+05 -9.871E+01 .            .            .            . *          .
  1.000E+06 -9.844E+01 .            .            .            . *          .
  1.259E+06 -9.828E+01 .            .            .            . *          .
  1.585E+06 -9.823E+01 .            .            .            . *          .
  1.995E+06 -9.825E+01 .            .            .            . *          .
  2.512E+06 -9.837E+01 .            .            .            . *          .
  3.162E+06 -9.859E+01 .            .            .            . *          .
  3.981E+06 -9.895E+01 .            .            .            .*           .
  5.012E+06 -9.947E+01 .            .            .            .*           .
  6.310E+06 -1.002E+02 .            .            .            *            .
  7.943E+06 -1.012E+02 .            .            .          * .            .
  1.000E+07 -1.023E+02 .            .            .         *  .            .
  1.259E+07 -1.037E+02 .            .            .       *    .            .
  1.585E+07 -1.053E+02 .            .            .     *      .            .
  1.995E+07 -1.070E+02 .            .            .   *        .            .
  2.512E+07 -1.088E+02 .            .            . *          .            .
  3.162E+07 -1.107E+02 .            .           *.            .            .
  3.981E+07 -1.126E+02 .            .         *  .            .            .
  5.012E+07 -1.145E+02 .            .      *     .            .            .
                       - - - - - - - - - - - - - - - - - - - - - - - - - - - 




          JOB CONCLUDED

**** 05/20/21 14:55:05 ******* PSpice Lite (March 2016) ******* ID# 10813 ****

 ******************************************************************


 ****     JOB STATISTICS SUMMARY


******************************************************************************



  Total job time (using Solver 1)   =         .14
