
**** 05/16/22 22:37:49 ******* PSpice Lite (March 2016) ******* ID# 10813 ****

 ******************************************************************


 ****     CIRCUIT DESCRIPTION


******************************************************************************



* High *
*******************************************************************
vdd vdd 0 dc 20
vs vs 0 ac 100m
r1 2 vdd 560k
r2 2 0 82k
rs vs 1 50
rd vdd 3 390
rl 4 0 390
c1 1 2 200u
c2 3 4 200u
M1 3 2 0 0 M2n7000 L=2u W=0.12


*.model M2n7000 NMOS(L=2u W=0.12 Kp=1.073u Vto=1.73 Lambda=0.002 Tox=2u Cgso=73.61p Cgdo=6.487p Cbd=74.46p)

.model M2n7000 NMOS(Level=1 Gamma=0 Delta=0 Eta=0 Theta=0 Kappa=0.2
+ Vmax=0 Xj=0 Tox=2u Uo=600 Phi=.6 Kp=1.073u W=.12 L=2u Rs=20m Vto=1.73
+ Rd=.5489 Rds=48MEG Cgso=73.61p Cgdo=6.487p Cbd=74.46p Mj=.5 Pb=.8
+ Fc=.5 Rg=546.2 Is=10f N=1 Rb=1m Lambda=0.002) 

*.model M2N6845 PMOS(Level=1 Gamma=0 Delta=0 Eta=0 Theta=0 Kappa=0.2
*+ Vmax=0 Xj=0 Tox=100n Uo=300 Phi=.6 Rs=.284 Kp=10.43u W=.68 L=2u
*+ Vto=-3.533 Rd=.1672 Rds=444.4MEG Cbd=899.2p Pb=.8 Mj=.5 Fc=.5
*+ Cgso=2.288n Cgdo=138.5p Rg=7.701 Is=793.1f N=3 Tt=425n)

*********************************************************************
* MEASURE OBJECT *
*********************************************************************
.op
.ac dec 10 0.1 150Meg
.plot ac vdb(4)
.probe
.end 

**** 05/16/22 22:37:49 ******* PSpice Lite (March 2016) ******* ID# 10813 ****

 ******************************************************************


 ****     MOSFET MODEL PARAMETERS


******************************************************************************




               M2n7000         
               NMOS            
       LEVEL    1            
           L    2.000000E-06 
           W     .12         
         VTO    1.73         
          KP    1.073000E-06 
       GAMMA    0            
         PHI     .6          
      LAMBDA    2.000000E-03 
          RD     .5489       
          RS     .02         
          RG  546.2          
          RB    1.000000E-03 
         RDS   48.000000E+06 
          IS   10.000000E-15 
          JS    0            
          PB     .8          
        PBSW     .8          
         CBD   74.460000E-12 
          CJ    0            
        CJSW    0            
        CGSO   73.610000E-12 
        CGDO    6.487000E-12 
        CGBO    0            
         TOX    2.000000E-06 
          XJ    0            
       UCRIT   10.000000E+03 
       DELTA    0            
         ETA    0            
      DIOMOD    1            
         VFB    0            
        LETA    0            
        WETA    0            
          U0    0            
        TEMP    0            
         VDD    5            
       XPART    0            


**** 05/16/22 22:37:49 ******* PSpice Lite (March 2016) ******* ID# 10813 ****

 ******************************************************************


 ****     SMALL SIGNAL BIAS SOLUTION       TEMPERATURE =   27.000 DEG C


******************************************************************************



 NODE   VOLTAGE     NODE   VOLTAGE     NODE   VOLTAGE     NODE   VOLTAGE


(    1)    0.0000  (    2)    2.5545  (    3)   11.2820  (    4)    0.0000      

(   vs)    0.0000  (  vdd)   20.0000  




    VOLTAGE SOURCE CURRENTS
    NAME         CURRENT

    vdd         -2.238E-02
    vs           0.000E+00

    TOTAL POWER DISSIPATION   4.48E-01  WATTS


**** 05/16/22 22:37:49 ******* PSpice Lite (March 2016) ******* ID# 10813 ****

 ******************************************************************


 ****     OPERATING POINT INFORMATION      TEMPERATURE =   27.000 DEG C


******************************************************************************






**** MOSFETS


NAME         M1        
MODEL        M2n7000   
ID           2.24E-02 
VGS          2.55E+00 
VDS          1.13E+01 
VBS          0.00E+00 
VTH          1.73E+00 
VDSAT        8.24E-01 
Lin0/Sat1   -1.00E+00 
if          -1.00E+00 
ir          -1.00E+00 
TAU         -1.00E+00 
GM           5.43E-02 
GDS          4.37E-05 
GMB          0.00E+00 
CBD          1.92E-11 
CBS          0.00E+00 
CGSOV        8.83E-12 
CGDOV        7.78E-13 
CGBOV        0.00E+00 
CGS          2.76E-12 
CGD          0.00E+00 
CGB          0.00E+00 
**** 05/16/22 22:37:49 ******* PSpice Lite (March 2016) ******* ID# 10813 ****

 ******************************************************************


 ****     AC ANALYSIS                      TEMPERATURE =   27.000 DEG C


******************************************************************************



  FREQ        VDB(4)      


(*)----------   -3.0000E+01  -2.0000E+01  -1.0000E+01   0.0000E+00   1.0000E+01
                       _ _ _ _ _ _ _ _ _ _ _ _ _ _ _ _ _ _ _ _ _ _ _ _ _ _ _
  1.000E-01 -1.994E+01 .            *            .            .            .
  1.259E-01 -1.795E+01 .            .  *         .            .            .
  1.585E-01 -1.597E+01 .            .    *       .            .            .
  1.995E-01 -1.402E+01 .            .       *    .            .            .
  2.512E-01 -1.211E+01 .            .         *  .            .            .
  3.162E-01 -1.025E+01 .            .            *            .            .
  3.981E-01 -8.457E+00 .            .            . *          .            .
  5.012E-01 -6.775E+00 .            .            .   *        .            .
  6.310E-01 -5.236E+00 .            .            .     *      .            .
  7.943E-01 -3.879E+00 .            .            .       *    .            .
  1.000E+00 -2.737E+00 .            .            .        *   .            .
  1.259E+00 -1.823E+00 .            .            .          * .            .
  1.585E+00 -1.128E+00 .            .            .           *.            .
  1.995E+00 -6.249E-01 .            .            .           *.            .
  2.512E+00 -2.744E-01 .            .            .            *            .
  3.162E+00 -3.782E-02 .            .            .            *            .
  3.981E+00  1.184E-01 .            .            .            *            .
  5.012E+00  2.199E-01 .            .            .            *            .
  6.310E+00  2.852E-01 .            .            .            *            .
  7.943E+00  3.269E-01 .            .            .            *            .
  1.000E+01  3.535E-01 .            .            .            *            .
  1.259E+01  3.703E-01 .            .            .            *            .
  1.585E+01  3.809E-01 .            .            .            *            .
  1.995E+01  3.877E-01 .            .            .            .*           .
  2.512E+01  3.919E-01 .            .            .            .*           .
  3.162E+01  3.946E-01 .            .            .            .*           .
  3.981E+01  3.963E-01 .            .            .            .*           .
  5.012E+01  3.974E-01 .            .            .            .*           .
  6.310E+01  3.980E-01 .            .            .            .*           .
  7.943E+01  3.985E-01 .            .            .            .*           .
  1.000E+02  3.987E-01 .            .            .            .*           .
  1.259E+02  3.989E-01 .            .            .            .*           .
  1.585E+02  3.990E-01 .            .            .            .*           .
  1.995E+02  3.991E-01 .            .            .            .*           .
  2.512E+02  3.991E-01 .            .            .            .*           .
  3.162E+02  3.992E-01 .            .            .            .*           .
  3.981E+02  3.992E-01 .            .            .            .*           .
  5.012E+02  3.992E-01 .            .            .            .*           .
  6.310E+02  3.992E-01 .            .            .            .*           .
  7.943E+02  3.992E-01 .            .            .            .*           .
  1.000E+03  3.992E-01 .            .            .            .*           .
  1.259E+03  3.992E-01 .            .            .            .*           .
  1.585E+03  3.992E-01 .            .            .            .*           .
  1.995E+03  3.992E-01 .            .            .            .*           .
  2.512E+03  3.992E-01 .            .            .            .*           .
  3.162E+03  3.992E-01 .            .            .            .*           .
  3.981E+03  3.992E-01 .            .            .            .*           .
  5.012E+03  3.992E-01 .            .            .            .*           .
  6.310E+03  3.992E-01 .            .            .            .*           .
  7.943E+03  3.992E-01 .            .            .            .*           .
  1.000E+04  3.992E-01 .            .            .            .*           .
  1.259E+04  3.992E-01 .            .            .            .*           .
  1.585E+04  3.992E-01 .            .            .            .*           .
  1.995E+04  3.992E-01 .            .            .            .*           .
  2.512E+04  3.992E-01 .            .            .            .*           .
  3.162E+04  3.992E-01 .            .            .            .*           .
  3.981E+04  3.991E-01 .            .            .            .*           .
  5.012E+04  3.991E-01 .            .            .            .*           .
  6.310E+04  3.991E-01 .            .            .            .*           .
  7.943E+04  3.990E-01 .            .            .            .*           .
  1.000E+05  3.989E-01 .            .            .            .*           .
  1.259E+05  3.986E-01 .            .            .            .*           .
  1.585E+05  3.983E-01 .            .            .            .*           .
  1.995E+05  3.978E-01 .            .            .            .*           .
  2.512E+05  3.970E-01 .            .            .            .*           .
  3.162E+05  3.957E-01 .            .            .            .*           .
  3.981E+05  3.937E-01 .            .            .            .*           .
  5.012E+05  3.905E-01 .            .            .            .*           .
  6.310E+05  3.854E-01 .            .            .            .*           .
  7.943E+05  3.773E-01 .            .            .            *            .
  1.000E+06  3.646E-01 .            .            .            *            .
  1.259E+06  3.444E-01 .            .            .            *            .
  1.585E+06  3.127E-01 .            .            .            *            .
  1.995E+06  2.629E-01 .            .            .            *            .
  2.512E+06  1.850E-01 .            .            .            *            .
  3.162E+06  6.423E-02 .            .            .            *            .
  3.981E+06 -1.208E-01 .            .            .            *            .
  5.012E+06 -3.994E-01 .            .            .           *.            .
  6.310E+06 -8.089E-01 .            .            .           *.            .
  7.943E+06 -1.391E+00 .            .            .          * .            .
  1.000E+07 -2.185E+00 .            .            .         *  .            .
  1.259E+07 -3.219E+00 .            .            .        *   .            .
  1.585E+07 -4.501E+00 .            .            .      *     .            .
  1.995E+07 -6.022E+00 .            .            .    *       .            .
  2.512E+07 -7.765E+00 .            .            .  *         .            .
  3.162E+07 -9.715E+00 .            .            *            .            .
  3.981E+07 -1.187E+01 .            .          * .            .            .
  5.012E+07 -1.423E+01 .            .      *     .            .            .
  6.310E+07 -1.683E+01 .            .   *        .            .            .
  7.943E+07 -1.967E+01 .            *            .            .            .
  1.000E+08 -2.276E+01 .        *   .            .            .            .
  1.259E+08 -2.608E+01 .    *       .            .            .            .
  1.585E+08 -2.959E+01 .*           .            .            .            .
                       - - - - - - - - - - - - - - - - - - - - - - - - - - - 




          JOB CONCLUDED

**** 05/16/22 22:37:49 ******* PSpice Lite (March 2016) ******* ID# 10813 ****

 ******************************************************************


 ****     JOB STATISTICS SUMMARY


******************************************************************************



  Total job time (using Solver 1)   =         .03
