
**** 05/17/22 16:03:44 ******* PSpice Lite (March 2016) ******* ID# 10813 ****

  


 ****     CIRCUIT DESCRIPTION


******************************************************************************



vdd 4 0 dc 20v
vs 1 0 ac 100mv
rsig 1 2 50
c1 2 3 200u
r1 3 4 560k
r2 3 0 82k
m1 5 3 0 0 aaa1
.model aaa1 nmos(kp=1.073u W=0.12 L=2u Vto=1.73 Lambda=0.002 Tox=2u Cgso=73.61p Cgdo=6.487p Cbd=74.46p)
c2 5 7 200u
rL 7 0 390
rd 4 5 390
.op
.ac dec 500 0.001 1000meg
.plot ac vdb(7)
.probe
.end

**** 05/17/22 16:03:44 ******* PSpice Lite (March 2016) ******* ID# 10813 ****

  


 ****     MOSFET MODEL PARAMETERS


******************************************************************************




               aaa1            
               NMOS            
       LEVEL    1            
           L    2.000000E-06 
           W     .12         
         VTO    1.73         
          KP    1.073000E-06 
       GAMMA    0            
         PHI     .6          
      LAMBDA    2.000000E-03 
          IS   10.000000E-15 
          JS    0            
          PB     .8          
        PBSW     .8          
         CBD   74.460000E-12 
          CJ    0            
        CJSW    0            
        CGSO   73.610000E-12 
        CGDO    6.487000E-12 
        CGBO    0            
         TOX    2.000000E-06 
          XJ    0            
       UCRIT   10.000000E+03 
      DIOMOD    1            
         VFB    0            
        LETA    0            
        WETA    0            
          U0    0            
        TEMP    0            
         VDD    5            
       XPART    0            


**** 05/17/22 16:03:44 ******* PSpice Lite (March 2016) ******* ID# 10813 ****

  


 ****     SMALL SIGNAL BIAS SOLUTION       TEMPERATURE =   27.000 DEG C


******************************************************************************



 NODE   VOLTAGE     NODE   VOLTAGE     NODE   VOLTAGE     NODE   VOLTAGE


(    1)    0.0000  (    2)    0.0000  (    3)    2.5545  (    4)   20.0000      

(    5)   11.2730  (    7)    0.0000  




    VOLTAGE SOURCE CURRENTS
    NAME         CURRENT

    vdd         -2.241E-02
    vs           0.000E+00

    TOTAL POWER DISSIPATION   4.48E-01  WATTS


**** 05/17/22 16:03:44 ******* PSpice Lite (March 2016) ******* ID# 10813 ****

  


 ****     OPERATING POINT INFORMATION      TEMPERATURE =   27.000 DEG C


******************************************************************************






**** MOSFETS


NAME         m1        
MODEL        aaa1      
ID           2.24E-02 
VGS          2.55E+00 
VDS          1.13E+01 
VBS          0.00E+00 
VTH          1.73E+00 
VDSAT        8.25E-01 
Lin0/Sat1   -1.00E+00 
if          -1.00E+00 
ir          -1.00E+00 
TAU         -1.00E+00 
GM           5.43E-02 
GDS          4.38E-05 
GMB          0.00E+00 
CBD          1.92E-11 
CBS          0.00E+00 
CGSOV        8.83E-12 
CGDOV        7.78E-13 
CGBOV        0.00E+00 
CGS          2.76E-12 
CGD          0.00E+00 
CGB          0.00E+00 
**** 05/17/22 16:03:44 ******* PSpice Lite (March 2016) ******* ID# 10813 ****

  


 ****     AC ANALYSIS                      TEMPERATURE =   27.000 DEG C


******************************************************************************



  FREQ        VDB(7)      


(*)----------   -1.0000E+02  -5.0000E+01   0.0000E+00   5.0000E+01   1.0000E+02
                       _ _ _ _ _ _ _ _ _ _ _ _ _ _ _ _ _ _ _ _ _ _ _ _ _ _ _
  1.000E-03 -8.079E+01 .    *       .            .            .            .
  1.005E-03 -8.071E+01 .    *       .            .            .            .
  1.009E-03 -8.063E+01 .    *       .            .            .            .
  1.014E-03 -8.055E+01 .    *       .            .            .            .
  1.019E-03 -8.047E+01 .    *       .            .            .            .
  1.023E-03 -8.039E+01 .    *       .            .            .            .
  1.028E-03 -8.031E+01 .    *       .            .            .            .
  1.033E-03 -8.023E+01 .    *       .            .            .            .
  1.038E-03 -8.015E+01 .    *       .            .            .            .
  1.042E-03 -8.007E+01 .    *       .            .            .            .
  1.047E-03 -7.999E+01 .    *       .            .            .            .
  1.052E-03 -7.991E+01 .    *       .            .            .            .
  1.057E-03 -7.983E+01 .    *       .            .            .            .
  1.062E-03 -7.975E+01 .    *       .            .            .            .
  1.067E-03 -7.967E+01 .    *       .            .            .            .
  1.072E-03 -7.959E+01 .    *       .            .            .            .
  1.076E-03 -7.951E+01 .    *       .            .            .            .
  1.081E-03 -7.943E+01 .    *       .            .            .            .
  1.086E-03 -7.936E+01 .    *       .            .            .            .
  1.091E-03 -7.928E+01 .    *       .            .            .            .
  1.096E-03 -7.920E+01 .    *       .            .            .            .
  1.102E-03 -7.912E+01 .    *       .            .            .            .
  1.107E-03 -7.904E+01 .    *       .            .            .            .
  1.112E-03 -7.896E+01 .    *       .            .            .            .
  1.117E-03 -7.888E+01 .    *       .            .            .            .
  1.122E-03 -7.880E+01 .     *      .            .            .            .
  1.127E-03 -7.872E+01 .     *      .            .            .            .
  1.132E-03 -7.864E+01 .     *      .            .            .            .
  1.138E-03 -7.856E+01 .     *      .            .            .            .
  1.143E-03 -7.848E+01 .     *      .            .            .            .
  1.148E-03 -7.840E+01 .     *      .            .            .            .
  1.153E-03 -7.832E+01 .     *      .            .            .            .
  1.159E-03 -7.824E+01 .     *      .            .            .            .
  1.164E-03 -7.816E+01 .     *      .            .            .            .
  1.170E-03 -7.808E+01 .     *      .            .            .            .
  1.175E-03 -7.800E+01 .     *      .            .            .            .
  1.180E-03 -7.792E+01 .     *      .            .            .            .
  1.186E-03 -7.784E+01 .     *      .            .            .            .
  1.191E-03 -7.776E+01 .     *      .            .            .            .
  1.197E-03 -7.768E+01 .     *      .            .            .            .
  1.202E-03 -7.760E+01 .     *      .            .            .            .
  1.208E-03 -7.753E+01 .     *      .            .            .            .
  1.213E-03 -7.745E+01 .     *      .            .            .            .
  1.219E-03 -7.737E+01 .     *      .            .            .            .
  1.225E-03 -7.729E+01 .     *      .            .            .            .
  1.230E-03 -7.721E+01 .     *      .            .            .            .
  1.236E-03 -7.713E+01 .     *      .            .            .            .
  1.242E-03 -7.705E+01 .     *      .            .            .            .
  1.247E-03 -7.697E+01 .     *      .            .            .            .
  1.253E-03 -7.689E+01 .     *      .            .            .            .
  1.259E-03 -7.681E+01 .     *      .            .            .            .
  1.265E-03 -7.673E+01 .     *      .            .            .            .
  1.271E-03 -7.665E+01 .     *      .            .            .            .
  1.276E-03 -7.657E+01 .     *      .            .            .            .
  1.282E-03 -7.649E+01 .     *      .            .            .            .
  1.288E-03 -7.641E+01 .     *      .            .            .            .
  1.294E-03 -7.633E+01 .     *      .            .            .            .
  1.300E-03 -7.625E+01 .     *      .            .            .            .
  1.306E-03 -7.617E+01 .     *      .            .            .            .
  1.312E-03 -7.609E+01 .     *      .            .            .            .
  1.318E-03 -7.601E+01 .     *      .            .            .            .
  1.324E-03 -7.594E+01 .     *      .            .            .            .
  1.330E-03 -7.586E+01 .     *      .            .            .            .
  1.337E-03 -7.578E+01 .     *      .            .            .            .
  1.343E-03 -7.570E+01 .     *      .            .            .            .
  1.349E-03 -7.562E+01 .     *      .            .            .            .
  1.355E-03 -7.554E+01 .     *      .            .            .            .
  1.361E-03 -7.546E+01 .     *      .            .            .            .
  1.368E-03 -7.538E+01 .     *      .            .            .            .
  1.374E-03 -7.530E+01 .     *      .            .            .            .
  1.380E-03 -7.522E+01 .     *      .            .            .            .
  1.387E-03 -7.514E+01 .     *      .            .            .            .
  1.393E-03 -7.506E+01 .     *      .            .            .            .
  1.400E-03 -7.498E+01 .      *     .            .            .            .
  1.406E-03 -7.490E+01 .      *     .            .            .            .
  1.413E-03 -7.482E+01 .      *     .            .            .            .
  1.419E-03 -7.474E+01 .      *     .            .            .            .
  1.426E-03 -7.466E+01 .      *     .            .            .            .
  1.432E-03 -7.459E+01 .      *     .            .            .            .
  1.439E-03 -7.451E+01 .      *     .            .            .            .
  1.445E-03 -7.443E+01 .      *     .            .            .            .
  1.452E-03 -7.435E+01 .      *     .            .            .            .
  1.459E-03 -7.427E+01 .      *     .            .            .            .
  1.466E-03 -7.419E+01 .      *     .            .            .            .
  1.472E-03 -7.411E+01 .      *     .            .            .            .
  1.479E-03 -7.403E+01 .      *     .            .            .            .
  1.486E-03 -7.395E+01 .      *     .            .            .            .
  1.493E-03 -7.387E+01 .      *     .            .            .            .
  1.500E-03 -7.379E+01 .      *     .            .            .            .
  1.507E-03 -7.371E+01 .      *     .            .            .            .
  1.514E-03 -7.363E+01 .      *     .            .            .            .
  1.521E-03 -7.355E+01 .      *     .            .            .            .
  1.528E-03 -7.348E+01 .      *     .            .            .            .
  1.535E-03 -7.340E+01 .      *     .            .            .            .
  1.542E-03 -7.332E+01 .      *     .            .            .            .
  1.549E-03 -7.324E+01 .      *     .            .            .            .
  1.556E-03 -7.316E+01 .      *     .            .            .            .
  1.563E-03 -7.308E+01 .      *     .            .            .            .
  1.570E-03 -7.300E+01 .      *     .            .            .            .
  1.578E-03 -7.292E+01 .      *     .            .            .            .
  1.585E-03 -7.284E+01 .      *     .            .            .            .
  1.592E-03 -7.276E+01 .      *     .            .            .            .
  1.600E-03 -7.268E+01 .      *     .            .            .            .
  1.607E-03 -7.260E+01 .      *     .            .            .            .
  1.614E-03 -7.252E+01 .      *     .            .            .            .
  1.622E-03 -7.245E+01 .      *     .            .            .            .
  1.629E-03 -7.237E+01 .      *     .            .            .            .
  1.637E-03 -7.229E+01 .      *     .            .            .            .
  1.644E-03 -7.221E+01 .      *     .            .            .            .
  1.652E-03 -7.213E+01 .      *     .            .            .            .
  1.660E-03 -7.205E+01 .      *     .            .            .            .
  1.667E-03 -7.197E+01 .      *     .            .            .            .
  1.675E-03 -7.189E+01 .      *     .            .            .            .
  1.683E-03 -7.181E+01 .      *     .            .            .            .
  1.690E-03 -7.173E+01 .      *     .            .            .            .
  1.698E-03 -7.165E+01 .      *     .            .            .            .
  1.706E-03 -7.158E+01 .      *     .            .            .            .
  1.714E-03 -7.150E+01 .      *     .            .            .            .
  1.722E-03 -7.142E+01 .      *     .            .            .            .
  1.730E-03 -7.134E+01 .      *     .            .            .            .
  1.738E-03 -7.126E+01 .      *     .            .            .            .
  1.746E-03 -7.118E+01 .      *     .            .            .            .
  1.754E-03 -7.110E+01 .       *    .            .            .            .
  1.762E-03 -7.102E+01 .       *    .            .            .            .
  1.770E-03 -7.094E+01 .       *    .            .            .            .
  1.778E-03 -7.086E+01 .       *    .            .            .            .
  1.786E-03 -7.078E+01 .       *    .            .            .            .
  1.795E-03 -7.071E+01 .       *    .            .            .            .
  1.803E-03 -7.063E+01 .       *    .            .            .            .
  1.811E-03 -7.055E+01 .       *    .            .            .            .
  1.820E-03 -7.047E+01 .       *    .            .            .            .
  1.828E-03 -7.039E+01 .       *    .            .            .            .
  1.837E-03 -7.031E+01 .       *    .            .            .            .
  1.845E-03 -7.023E+01 .       *    .            .            .            .
  1.854E-03 -7.015E+01 .       *    .            .            .            .
  1.862E-03 -7.007E+01 .       *    .            .            .            .
  1.871E-03 -7.000E+01 .       *    .            .            .            .
  1.879E-03 -6.992E+01 .       *    .            .            .            .
  1.888E-03 -6.984E+01 .       *    .            .            .            .
  1.897E-03 -6.976E+01 .       *    .            .            .            .
  1.905E-03 -6.968E+01 .       *    .            .            .            .
  1.914E-03 -6.960E+01 .       *    .            .            .            .
  1.923E-03 -6.952E+01 .       *    .            .            .            .
  1.932E-03 -6.944E+01 .       *    .            .            .            .
  1.941E-03 -6.936E+01 .       *    .            .            .            .
  1.950E-03 -6.929E+01 .       *    .            .            .            .
  1.959E-03 -6.921E+01 .       *    .            .            .            .
  1.968E-03 -6.913E+01 .       *    .            .            .            .
  1.977E-03 -6.905E+01 .       *    .            .            .            .
  1.986E-03 -6.897E+01 .       *    .            .            .            .
  1.995E-03 -6.889E+01 .       *    .            .            .            .
  2.004E-03 -6.881E+01 .       *    .            .            .            .
  2.014E-03 -6.873E+01 .       *    .            .            .            .
  2.023E-03 -6.866E+01 .       *    .            .            .            .
  2.032E-03 -6.858E+01 .       *    .            .            .            .
  2.042E-03 -6.850E+01 .       *    .            .            .            .
  2.051E-03 -6.842E+01 .       *    .            .            .            .
  2.061E-03 -6.834E+01 .       *    .            .            .            .
  2.070E-03 -6.826E+01 .       *    .            .            .            .
  2.080E-03 -6.818E+01 .       *    .            .            .            .
  2.089E-03 -6.810E+01 .       *    .            .            .            .
  2.099E-03 -6.803E+01 .       *    .            .            .            .
  2.109E-03 -6.795E+01 .       *    .            .            .            .
  2.118E-03 -6.787E+01 .       *    .            .            .            .
  2.128E-03 -6.779E+01 .       *    .            .            .            .
  2.138E-03 -6.771E+01 .       *    .            .            .            .
  2.148E-03 -6.763E+01 .       *    .            .            .            .
  2.158E-03 -6.755E+01 .       *    .            .            .            .
  2.168E-03 -6.748E+01 .       *    .            .            .            .
  2.178E-03 -6.740E+01 .       *    .            .            .            .
  2.188E-03 -6.732E+01 .       *    .            .            .            .
  2.198E-03 -6.724E+01 .        *   .            .            .            .
  2.208E-03 -6.716E+01 .        *   .            .            .            .
  2.218E-03 -6.708E+01 .        *   .            .            .            .
  2.228E-03 -6.701E+01 .        *   .            .            .            .
  2.239E-03 -6.693E+01 .        *   .            .            .            .
  2.249E-03 -6.685E+01 .        *   .            .            .            .
  2.259E-03 -6.677E+01 .        *   .            .            .            .
  2.270E-03 -6.669E+01 .        *   .            .            .            .
  2.280E-03 -6.661E+01 .        *   .            .            .            .
  2.291E-03 -6.653E+01 .        *   .            .            .            .
  2.301E-03 -6.646E+01 .        *   .            .            .            .
  2.312E-03 -6.638E+01 .        *   .            .            .            .
  2.323E-03 -6.630E+01 .        *   .            .            .            .
  2.333E-03 -6.622E+01 .        *   .            .            .            .
  2.344E-03 -6.614E+01 .        *   .            .            .            .
  2.355E-03 -6.606E+01 .        *   .            .            .            .
  2.366E-03 -6.599E+01 .        *   .            .            .            .
  2.377E-03 -6.591E+01 .        *   .            .            .            .
  2.388E-03 -6.583E+01 .        *   .            .            .            .
  2.399E-03 -6.575E+01 .        *   .            .            .            .
  2.410E-03 -6.567E+01 .        *   .            .            .            .
  2.421E-03 -6.560E+01 .        *   .            .            .            .
  2.432E-03 -6.552E+01 .        *   .            .            .            .
  2.443E-03 -6.544E+01 .        *   .            .            .            .
  2.455E-03 -6.536E+01 .        *   .            .            .            .
  2.466E-03 -6.528E+01 .        *   .            .            .            .
  2.477E-03 -6.520E+01 .        *   .            .            .            .
  2.489E-03 -6.513E+01 .        *   .            .            .            .
  2.500E-03 -6.505E+01 .        *   .            .            .            .
  2.512E-03 -6.497E+01 .        *   .            .            .            .
  2.523E-03 -6.489E+01 .        *   .            .            .            .
  2.535E-03 -6.481E+01 .        *   .            .            .            .
  2.547E-03 -6.474E+01 .        *   .            .            .            .
  2.559E-03 -6.466E+01 .        *   .            .            .            .
  2.570E-03 -6.458E+01 .        *   .            .            .            .
  2.582E-03 -6.450E+01 .        *   .            .            .            .
  2.594E-03 -6.442E+01 .        *   .            .            .            .
  2.606E-03 -6.435E+01 .        *   .            .            .            .
  2.618E-03 -6.427E+01 .        *   .            .            .            .
  2.630E-03 -6.419E+01 .        *   .            .            .            .
  2.642E-03 -6.411E+01 .        *   .            .            .            .
  2.655E-03 -6.403E+01 .        *   .            .            .            .
  2.667E-03 -6.396E+01 .        *   .            .            .            .
  2.679E-03 -6.388E+01 .        *   .            .            .            .
  2.692E-03 -6.380E+01 .        *   .            .            .            .
  2.704E-03 -6.372E+01 .        *   .            .            .            .
  2.716E-03 -6.365E+01 .        *   .            .            .            .
  2.729E-03 -6.357E+01 .        *   .            .            .            .
  2.742E-03 -6.349E+01 .        *   .            .            .            .
  2.754E-03 -6.341E+01 .         *  .            .            .            .
  2.767E-03 -6.334E+01 .         *  .            .            .            .
  2.780E-03 -6.326E+01 .         *  .            .            .            .
  2.793E-03 -6.318E+01 .         *  .            .            .            .
  2.805E-03 -6.310E+01 .         *  .            .            .            .
  2.818E-03 -6.302E+01 .         *  .            .            .            .
  2.831E-03 -6.295E+01 .         *  .            .            .            .
  2.844E-03 -6.287E+01 .         *  .            .            .            .
  2.858E-03 -6.279E+01 .         *  .            .            .            .
  2.871E-03 -6.271E+01 .         *  .            .            .            .
  2.884E-03 -6.264E+01 .         *  .            .            .            .
  2.897E-03 -6.256E+01 .         *  .            .            .            .
  2.911E-03 -6.248E+01 .         *  .            .            .            .
  2.924E-03 -6.240E+01 .         *  .            .            .            .
  2.938E-03 -6.233E+01 .         *  .            .            .            .
  2.951E-03 -6.225E+01 .         *  .            .            .            .
  2.965E-03 -6.217E+01 .         *  .            .            .            .
  2.979E-03 -6.210E+01 .         *  .            .            .            .
  2.992E-03 -6.202E+01 .         *  .            .            .            .
  3.006E-03 -6.194E+01 .         *  .            .            .            .
  3.020E-03 -6.186E+01 .         *  .            .            .            .
  3.034E-03 -6.179E+01 .         *  .            .            .            .
  3.048E-03 -6.171E+01 .         *  .            .            .            .
  3.062E-03 -6.163E+01 .         *  .            .            .            .
  3.076E-03 -6.155E+01 .         *  .            .            .            .
  3.090E-03 -6.148E+01 .         *  .            .            .            .
  3.105E-03 -6.140E+01 .         *  .            .            .            .
  3.119E-03 -6.132E+01 .         *  .            .            .            .
  3.133E-03 -6.125E+01 .         *  .            .            .            .
  3.148E-03 -6.117E+01 .         *  .            .            .            .
  3.162E-03 -6.109E+01 .         *  .            .            .            .
  3.177E-03 -6.102E+01 .         *  .            .            .            .
  3.192E-03 -6.094E+01 .         *  .            .            .            .
  3.206E-03 -6.086E+01 .         *  .            .            .            .
  3.221E-03 -6.078E+01 .         *  .            .            .            .
  3.236E-03 -6.071E+01 .         *  .            .            .            .
  3.251E-03 -6.063E+01 .         *  .            .            .            .
  3.266E-03 -6.055E+01 .         *  .            .            .            .
  3.281E-03 -6.048E+01 .         *  .            .            .            .
  3.296E-03 -6.040E+01 .         *  .            .            .            .
  3.311E-03 -6.032E+01 .         *  .            .            .            .
  3.327E-03 -6.025E+01 .         *  .            .            .            .
  3.342E-03 -6.017E+01 .         *  .            .            .            .
  3.357E-03 -6.009E+01 .         *  .            .            .            .
  3.373E-03 -6.002E+01 .         *  .            .            .            .
  3.388E-03 -5.994E+01 .         *  .            .            .            .
  3.404E-03 -5.986E+01 .         *  .            .            .            .
  3.420E-03 -5.979E+01 .         *  .            .            .            .
  3.436E-03 -5.971E+01 .         *  .            .            .            .
  3.451E-03 -5.963E+01 .         *  .            .            .            .
  3.467E-03 -5.956E+01 .          * .            .            .            .
  3.483E-03 -5.948E+01 .          * .            .            .            .
  3.499E-03 -5.940E+01 .          * .            .            .            .
  3.516E-03 -5.933E+01 .          * .            .            .            .
  3.532E-03 -5.925E+01 .          * .            .            .            .
  3.548E-03 -5.918E+01 .          * .            .            .            .
  3.565E-03 -5.910E+01 .          * .            .            .            .
  3.581E-03 -5.902E+01 .          * .            .            .            .
  3.597E-03 -5.895E+01 .          * .            .            .            .
  3.614E-03 -5.887E+01 .          * .            .            .            .
  3.631E-03 -5.879E+01 .          * .            .            .            .
  3.648E-03 -5.872E+01 .          * .            .            .            .
  3.664E-03 -5.864E+01 .          * .            .            .            .
  3.681E-03 -5.857E+01 .          * .            .            .            .
  3.698E-03 -5.849E+01 .          * .            .            .            .
  3.715E-03 -5.841E+01 .          * .            .            .            .
  3.733E-03 -5.834E+01 .          * .            .            .            .
  3.750E-03 -5.826E+01 .          * .            .            .            .
  3.767E-03 -5.819E+01 .          * .            .            .            .
  3.784E-03 -5.811E+01 .          * .            .            .            .
  3.802E-03 -5.803E+01 .          * .            .            .            .
  3.819E-03 -5.796E+01 .          * .            .            .            .
  3.837E-03 -5.788E+01 .          * .            .            .            .
  3.855E-03 -5.781E+01 .          * .            .            .            .
  3.873E-03 -5.773E+01 .          * .            .            .            .
  3.890E-03 -5.766E+01 .          * .            .            .            .
  3.908E-03 -5.758E+01 .          * .            .            .            .
  3.926E-03 -5.750E+01 .          * .            .            .            .
  3.945E-03 -5.743E+01 .          * .            .            .            .
  3.963E-03 -5.735E+01 .          * .            .            .            .
  3.981E-03 -5.728E+01 .          * .            .            .            .
  3.999E-03 -5.720E+01 .          * .            .            .            .
  4.018E-03 -5.713E+01 .          * .            .            .            .
  4.036E-03 -5.705E+01 .          * .            .            .            .
  4.055E-03 -5.698E+01 .          * .            .            .            .
  4.074E-03 -5.690E+01 .          * .            .            .            .
  4.093E-03 -5.683E+01 .          * .            .            .            .
  4.112E-03 -5.675E+01 .          * .            .            .            .
  4.130E-03 -5.668E+01 .          * .            .            .            .
  4.150E-03 -5.660E+01 .          * .            .            .            .
  4.169E-03 -5.653E+01 .          * .            .            .            .
  4.188E-03 -5.645E+01 .          * .            .            .            .
  4.207E-03 -5.638E+01 .          * .            .            .            .
  4.227E-03 -5.630E+01 .          * .            .            .            .
  4.246E-03 -5.623E+01 .          * .            .            .            .
  4.266E-03 -5.615E+01 .          * .            .            .            .
  4.285E-03 -5.608E+01 .          * .            .            .            .
  4.305E-03 -5.600E+01 .          * .            .            .            .
  4.325E-03 -5.593E+01 .          * .            .            .            .
  4.345E-03 -5.585E+01 .          * .            .            .            .
  4.365E-03 -5.578E+01 .          * .            .            .            .
  4.385E-03 -5.570E+01 .           *.            .            .            .
  4.406E-03 -5.563E+01 .           *.            .            .            .
  4.426E-03 -5.555E+01 .           *.            .            .            .
  4.446E-03 -5.548E+01 .           *.            .            .            .
  4.467E-03 -5.540E+01 .           *.            .            .            .
  4.487E-03 -5.533E+01 .           *.            .            .            .
  4.508E-03 -5.526E+01 .           *.            .            .            .
  4.529E-03 -5.518E+01 .           *.            .            .            .
  4.550E-03 -5.511E+01 .           *.            .            .            .
  4.571E-03 -5.503E+01 .           *.            .            .            .
  4.592E-03 -5.496E+01 .           *.            .            .            .
  4.613E-03 -5.488E+01 .           *.            .            .            .
  4.634E-03 -5.481E+01 .           *.            .            .            .
  4.656E-03 -5.474E+01 .           *.            .            .            .
  4.677E-03 -5.466E+01 .           *.            .            .            .
  4.699E-03 -5.459E+01 .           *.            .            .            .
  4.721E-03 -5.451E+01 .           *.            .            .            .
  4.742E-03 -5.444E+01 .           *.            .            .            .
  4.764E-03 -5.437E+01 .           *.            .            .            .
  4.786E-03 -5.429E+01 .           *.            .            .            .
  4.808E-03 -5.422E+01 .           *.            .            .            .
  4.831E-03 -5.415E+01 .           *.            .            .            .
  4.853E-03 -5.407E+01 .           *.            .            .            .
  4.875E-03 -5.400E+01 .           *.            .            .            .
  4.898E-03 -5.392E+01 .           *.            .            .            .
  4.920E-03 -5.385E+01 .           *.            .            .            .
  4.943E-03 -5.378E+01 .           *.            .            .            .
  4.966E-03 -5.370E+01 .           *.            .            .            .
  4.989E-03 -5.363E+01 .           *.            .            .            .
  5.012E-03 -5.356E+01 .           *.            .            .            .
  5.035E-03 -5.348E+01 .           *.            .            .            .
  5.058E-03 -5.341E+01 .           *.            .            .            .
  5.082E-03 -5.334E+01 .           *.            .            .            .
  5.105E-03 -5.327E+01 .           *.            .            .            .
  5.129E-03 -5.319E+01 .           *.            .            .            .
  5.152E-03 -5.312E+01 .           *.            .            .            .
  5.176E-03 -5.305E+01 .           *.            .            .            .
  5.200E-03 -5.297E+01 .           *.            .            .            .
  5.224E-03 -5.290E+01 .           *.            .            .            .
  5.248E-03 -5.283E+01 .           *.            .            .            .
  5.272E-03 -5.276E+01 .           *.            .            .            .
  5.297E-03 -5.268E+01 .           *.            .            .            .
  5.321E-03 -5.261E+01 .           *.            .            .            .
  5.346E-03 -5.254E+01 .           *.            .            .            .
  5.370E-03 -5.246E+01 .           *.            .            .            .
  5.395E-03 -5.239E+01 .           *.            .            .            .
  5.420E-03 -5.232E+01 .           *.            .            .            .
  5.445E-03 -5.225E+01 .           *.            .            .            .
  5.470E-03 -5.218E+01 .           *.            .            .            .
  5.495E-03 -5.210E+01 .           *.            .            .            .
  5.521E-03 -5.203E+01 .           *.            .            .            .
  5.546E-03 -5.196E+01 .           *.            .            .            .
  5.572E-03 -5.189E+01 .            *            .            .            .
  5.598E-03 -5.182E+01 .            *            .            .            .
  5.623E-03 -5.174E+01 .            *            .            .            .
  5.649E-03 -5.167E+01 .            *            .            .            .
  5.675E-03 -5.160E+01 .            *            .            .            .
  5.702E-03 -5.153E+01 .            *            .            .            .
  5.728E-03 -5.146E+01 .            *            .            .            .
  5.754E-03 -5.139E+01 .            *            .            .            .
  5.781E-03 -5.131E+01 .            *            .            .            .
  5.808E-03 -5.124E+01 .            *            .            .            .
  5.834E-03 -5.117E+01 .            *            .            .            .
  5.861E-03 -5.110E+01 .            *            .            .            .
  5.888E-03 -5.103E+01 .            *            .            .            .
  5.916E-03 -5.096E+01 .            *            .            .            .
  5.943E-03 -5.089E+01 .            *            .            .            .
  5.970E-03 -5.081E+01 .            *            .            .            .
  5.998E-03 -5.074E+01 .            *            .            .            .
  6.026E-03 -5.067E+01 .            *            .            .            .
  6.053E-03 -5.060E+01 .            *            .            .            .
  6.081E-03 -5.053E+01 .            *            .            .            .
  6.109E-03 -5.046E+01 .            *            .            .            .
  6.138E-03 -5.039E+01 .            *            .            .            .
  6.166E-03 -5.032E+01 .            *            .            .            .
  6.194E-03 -5.025E+01 .            *            .            .            .
  6.223E-03 -5.018E+01 .            *            .            .            .
  6.252E-03 -5.011E+01 .            *            .            .            .
  6.281E-03 -5.004E+01 .            *            .            .            .
  6.310E-03 -4.997E+01 .            *            .            .            .
  6.339E-03 -4.990E+01 .            *            .            .            .
  6.368E-03 -4.983E+01 .            *            .            .            .
  6.397E-03 -4.976E+01 .            *            .            .            .
  6.427E-03 -4.969E+01 .            *            .            .            .
  6.457E-03 -4.962E+01 .            *            .            .            .
  6.486E-03 -4.955E+01 .            *            .            .            .
  6.516E-03 -4.948E+01 .            *            .            .            .
  6.546E-03 -4.941E+01 .            *            .            .            .
  6.577E-03 -4.934E+01 .            *            .            .            .
  6.607E-03 -4.927E+01 .            *            .            .            .
  6.637E-03 -4.920E+01 .            *            .            .            .
  6.668E-03 -4.913E+01 .            *            .            .            .
  6.699E-03 -4.906E+01 .            *            .            .            .
  6.730E-03 -4.899E+01 .            *            .            .            .
  6.761E-03 -4.892E+01 .            *            .            .            .
  6.792E-03 -4.885E+01 .            *            .            .            .
  6.823E-03 -4.878E+01 .            *            .            .            .
  6.855E-03 -4.871E+01 .            *            .            .            .
  6.887E-03 -4.864E+01 .            *            .            .            .
  6.918E-03 -4.858E+01 .            *            .            .            .
  6.950E-03 -4.851E+01 .            *            .            .            .
  6.982E-03 -4.844E+01 .            *            .            .            .
  7.015E-03 -4.837E+01 .            *            .            .            .
  7.047E-03 -4.830E+01 .            *            .            .            .
  7.079E-03 -4.823E+01 .            *            .            .            .
  7.112E-03 -4.816E+01 .            *            .            .            .
  7.145E-03 -4.810E+01 .            *            .            .            .
  7.178E-03 -4.803E+01 .            .*           .            .            .
  7.211E-03 -4.796E+01 .            .*           .            .            .
  7.244E-03 -4.789E+01 .            .*           .            .            .
  7.278E-03 -4.782E+01 .            .*           .            .            .
  7.311E-03 -4.776E+01 .            .*           .            .            .
  7.345E-03 -4.769E+01 .            .*           .            .            .
  7.379E-03 -4.762E+01 .            .*           .            .            .
  7.413E-03 -4.755E+01 .            .*           .            .            .
  7.447E-03 -4.748E+01 .            .*           .            .            .
  7.482E-03 -4.742E+01 .            .*           .            .            .
  7.516E-03 -4.735E+01 .            .*           .            .            .
  7.551E-03 -4.728E+01 .            .*           .            .            .
  7.586E-03 -4.721E+01 .            .*           .            .            .
  7.621E-03 -4.715E+01 .            .*           .            .            .
  7.656E-03 -4.708E+01 .            .*           .            .            .
  7.691E-03 -4.701E+01 .            .*           .            .            .
  7.727E-03 -4.695E+01 .            .*           .            .            .
  7.762E-03 -4.688E+01 .            .*           .            .            .
  7.798E-03 -4.681E+01 .            .*           .            .            .
  7.834E-03 -4.675E+01 .            .*           .            .            .
  7.870E-03 -4.668E+01 .            .*           .            .            .
  7.907E-03 -4.661E+01 .            .*           .            .            .
  7.943E-03 -4.655E+01 .            .*           .            .            .
  7.980E-03 -4.648E+01 .            .*           .            .            .
  8.017E-03 -4.641E+01 .            .*           .            .            .
  8.054E-03 -4.635E+01 .            .*           .            .            .
  8.091E-03 -4.628E+01 .            .*           .            .            .
  8.128E-03 -4.621E+01 .            .*           .            .            .
  8.166E-03 -4.615E+01 .            .*           .            .            .
  8.204E-03 -4.608E+01 .            .*           .            .            .
  8.241E-03 -4.602E+01 .            .*           .            .            .
  8.279E-03 -4.595E+01 .            .*           .            .            .
  8.318E-03 -4.588E+01 .            .*           .            .            .
  8.356E-03 -4.582E+01 .            .*           .            .            .
  8.395E-03 -4.575E+01 .            .*           .            .            .
  8.433E-03 -4.569E+01 .            .*           .            .            .
  8.472E-03 -4.562E+01 .            .*           .            .            .
  8.511E-03 -4.556E+01 .            .*           .            .            .
  8.551E-03 -4.549E+01 .            .*           .            .            .
  8.590E-03 -4.543E+01 .            .*           .            .            .
  8.630E-03 -4.536E+01 .            .*           .            .            .
  8.670E-03 -4.530E+01 .            .*           .            .            .
  8.710E-03 -4.523E+01 .            .*           .            .            .
  8.750E-03 -4.517E+01 .            .*           .            .            .
  8.790E-03 -4.510E+01 .            .*           .            .            .
  8.831E-03 -4.504E+01 .            .*           .            .            .
  8.872E-03 -4.497E+01 .            .*           .            .            .
  8.913E-03 -4.491E+01 .            .*           .            .            .
  8.954E-03 -4.485E+01 .            .*           .            .            .
  8.995E-03 -4.478E+01 .            .*           .            .            .
  9.037E-03 -4.472E+01 .            .*           .            .            .
  9.078E-03 -4.465E+01 .            .*           .            .            .
  9.120E-03 -4.459E+01 .            .*           .            .            .
  9.162E-03 -4.453E+01 .            .*           .            .            .
  9.205E-03 -4.446E+01 .            .*           .            .            .
  9.247E-03 -4.440E+01 .            .*           .            .            .
  9.290E-03 -4.433E+01 .            .*           .            .            .
  9.333E-03 -4.427E+01 .            .*           .            .            .
  9.376E-03 -4.421E+01 .            . *          .            .            .
  9.419E-03 -4.414E+01 .            . *          .            .            .
  9.462E-03 -4.408E+01 .            . *          .            .            .
  9.506E-03 -4.402E+01 .            . *          .            .            .
  9.550E-03 -4.395E+01 .            . *          .            .            .
  9.594E-03 -4.389E+01 .            . *          .            .            .
  9.638E-03 -4.383E+01 .            . *          .            .            .
  9.683E-03 -4.377E+01 .            . *          .            .            .
  9.727E-03 -4.370E+01 .            . *          .            .            .
  9.772E-03 -4.364E+01 .            . *          .            .            .
  9.817E-03 -4.358E+01 .            . *          .            .            .
  9.863E-03 -4.352E+01 .            . *          .            .            .
  9.908E-03 -4.345E+01 .            . *          .            .            .
  9.954E-03 -4.339E+01 .            . *          .            .            .
  1.000E-02 -4.333E+01 .            . *          .            .            .
  1.005E-02 -4.327E+01 .            . *          .            .            .
  1.009E-02 -4.320E+01 .            . *          .            .            .
  1.014E-02 -4.314E+01 .            . *          .            .            .
  1.019E-02 -4.308E+01 .            . *          .            .            .
  1.023E-02 -4.302E+01 .            . *          .            .            .
  1.028E-02 -4.296E+01 .            . *          .            .            .
  1.033E-02 -4.290E+01 .            . *          .            .            .
  1.038E-02 -4.283E+01 .            . *          .            .            .
  1.042E-02 -4.277E+01 .            . *          .            .            .
  1.047E-02 -4.271E+01 .            . *          .            .            .
  1.052E-02 -4.265E+01 .            . *          .            .            .
  1.057E-02 -4.259E+01 .            . *          .            .            .
  1.062E-02 -4.253E+01 .            . *          .            .            .
  1.067E-02 -4.247E+01 .            . *          .            .            .
  1.072E-02 -4.241E+01 .            . *          .            .            .
  1.076E-02 -4.235E+01 .            . *          .            .            .
  1.081E-02 -4.229E+01 .            . *          .            .            .
  1.086E-02 -4.223E+01 .            . *          .            .            .
  1.091E-02 -4.217E+01 .            . *          .            .            .
  1.096E-02 -4.211E+01 .            . *          .            .            .
  1.102E-02 -4.204E+01 .            . *          .            .            .
  1.107E-02 -4.198E+01 .            . *          .            .            .
  1.112E-02 -4.192E+01 .            . *          .            .            .
  1.117E-02 -4.186E+01 .            . *          .            .            .
  1.122E-02 -4.180E+01 .            . *          .            .            .
  1.127E-02 -4.175E+01 .            . *          .            .            .
  1.132E-02 -4.169E+01 .            . *          .            .            .
  1.138E-02 -4.163E+01 .            . *          .            .            .
  1.143E-02 -4.157E+01 .            . *          .            .            .
  1.148E-02 -4.151E+01 .            . *          .            .            .
  1.153E-02 -4.145E+01 .            . *          .            .            .
  1.159E-02 -4.139E+01 .            . *          .            .            .
  1.164E-02 -4.133E+01 .            . *          .            .            .
  1.170E-02 -4.127E+01 .            . *          .            .            .
  1.175E-02 -4.121E+01 .            . *          .            .            .
  1.180E-02 -4.115E+01 .            . *          .            .            .
  1.186E-02 -4.109E+01 .            . *          .            .            .
  1.191E-02 -4.104E+01 .            . *          .            .            .
  1.197E-02 -4.098E+01 .            . *          .            .            .
  1.202E-02 -4.092E+01 .            . *          .            .            .
  1.208E-02 -4.086E+01 .            . *          .            .            .
  1.213E-02 -4.080E+01 .            . *          .            .            .
  1.219E-02 -4.074E+01 .            . *          .            .            .
  1.225E-02 -4.069E+01 .            . *          .            .            .
  1.230E-02 -4.063E+01 .            . *          .            .            .
  1.236E-02 -4.057E+01 .            . *          .            .            .
  1.242E-02 -4.051E+01 .            . *          .            .            .
  1.247E-02 -4.045E+01 .            . *          .            .            .
  1.253E-02 -4.040E+01 .            . *          .            .            .
  1.259E-02 -4.034E+01 .            .  *         .            .            .
  1.265E-02 -4.028E+01 .            .  *         .            .            .
  1.271E-02 -4.022E+01 .            .  *         .            .            .
  1.276E-02 -4.017E+01 .            .  *         .            .            .
  1.282E-02 -4.011E+01 .            .  *         .            .            .
  1.288E-02 -4.005E+01 .            .  *         .            .            .
  1.294E-02 -3.999E+01 .            .  *         .            .            .
  1.300E-02 -3.994E+01 .            .  *         .            .            .
  1.306E-02 -3.988E+01 .            .  *         .            .            .
  1.312E-02 -3.982E+01 .            .  *         .            .            .
  1.318E-02 -3.977E+01 .            .  *         .            .            .
  1.324E-02 -3.971E+01 .            .  *         .            .            .
  1.330E-02 -3.965E+01 .            .  *         .            .            .
  1.337E-02 -3.960E+01 .            .  *         .            .            .
  1.343E-02 -3.954E+01 .            .  *         .            .            .
  1.349E-02 -3.949E+01 .            .  *         .            .            .
  1.355E-02 -3.943E+01 .            .  *         .            .            .
  1.361E-02 -3.937E+01 .            .  *         .            .            .
  1.368E-02 -3.932E+01 .            .  *         .            .            .
  1.374E-02 -3.926E+01 .            .  *         .            .            .
  1.380E-02 -3.921E+01 .            .  *         .            .            .
  1.387E-02 -3.915E+01 .            .  *         .            .            .
  1.393E-02 -3.909E+01 .            .  *         .            .            .
  1.400E-02 -3.904E+01 .            .  *         .            .            .
  1.406E-02 -3.898E+01 .            .  *         .            .            .
  1.413E-02 -3.893E+01 .            .  *         .            .            .
  1.419E-02 -3.887E+01 .            .  *         .            .            .
  1.426E-02 -3.882E+01 .            .  *         .            .            .
  1.432E-02 -3.876E+01 .            .  *         .            .            .
  1.439E-02 -3.871E+01 .            .  *         .            .            .
  1.445E-02 -3.865E+01 .            .  *         .            .            .
  1.452E-02 -3.860E+01 .            .  *         .            .            .
  1.459E-02 -3.854E+01 .            .  *         .            .            .
  1.466E-02 -3.849E+01 .            .  *         .            .            .
  1.472E-02 -3.843E+01 .            .  *         .            .            .
  1.479E-02 -3.838E+01 .            .  *         .            .            .
  1.486E-02 -3.833E+01 .            .  *         .            .            .
  1.493E-02 -3.827E+01 .            .  *         .            .            .
  1.500E-02 -3.822E+01 .            .  *         .            .            .
  1.507E-02 -3.816E+01 .            .  *         .            .            .
  1.514E-02 -3.811E+01 .            .  *         .            .            .
  1.521E-02 -3.805E+01 .            .  *         .            .            .
  1.528E-02 -3.800E+01 .            .  *         .            .            .
  1.535E-02 -3.795E+01 .            .  *         .            .            .
  1.542E-02 -3.789E+01 .            .  *         .            .            .
  1.549E-02 -3.784E+01 .            .  *         .            .            .
  1.556E-02 -3.779E+01 .            .  *         .            .            .
  1.563E-02 -3.773E+01 .            .  *         .            .            .
  1.570E-02 -3.768E+01 .            .  *         .            .            .
  1.578E-02 -3.763E+01 .            .  *         .            .            .
  1.585E-02 -3.757E+01 .            .  *         .            .            .
  1.592E-02 -3.752E+01 .            .  *         .            .            .
  1.600E-02 -3.747E+01 .            .  *         .            .            .
  1.607E-02 -3.741E+01 .            .  *         .            .            .
  1.614E-02 -3.736E+01 .            .  *         .            .            .
  1.622E-02 -3.731E+01 .            .  *         .            .            .
  1.629E-02 -3.726E+01 .            .  *         .            .            .
  1.637E-02 -3.720E+01 .            .  *         .            .            .
  1.644E-02 -3.715E+01 .            .  *         .            .            .
  1.652E-02 -3.710E+01 .            .  *         .            .            .
  1.660E-02 -3.704E+01 .            .  *         .            .            .
  1.667E-02 -3.699E+01 .            .  *         .            .            .
  1.675E-02 -3.694E+01 .            .  *         .            .            .
  1.683E-02 -3.689E+01 .            .  *         .            .            .
  1.690E-02 -3.684E+01 .            .  *         .            .            .
  1.698E-02 -3.678E+01 .            .  *         .            .            .
  1.706E-02 -3.673E+01 .            .  *         .            .            .
  1.714E-02 -3.668E+01 .            .  *         .            .            .
  1.722E-02 -3.663E+01 .            .  *         .            .            .
  1.730E-02 -3.658E+01 .            .  *         .            .            .
  1.738E-02 -3.652E+01 .            .   *        .            .            .
  1.746E-02 -3.647E+01 .            .   *        .            .            .
  1.754E-02 -3.642E+01 .            .   *        .            .            .
  1.762E-02 -3.637E+01 .            .   *        .            .            .
  1.770E-02 -3.632E+01 .            .   *        .            .            .
  1.778E-02 -3.627E+01 .            .   *        .            .            .
  1.786E-02 -3.622E+01 .            .   *        .            .            .
  1.795E-02 -3.617E+01 .            .   *        .            .            .
  1.803E-02 -3.611E+01 .            .   *        .            .            .
  1.811E-02 -3.606E+01 .            .   *        .            .            .
  1.820E-02 -3.601E+01 .            .   *        .            .            .
  1.828E-02 -3.596E+01 .            .   *        .            .            .
  1.837E-02 -3.591E+01 .            .   *        .            .            .
  1.845E-02 -3.586E+01 .            .   *        .            .            .
  1.854E-02 -3.581E+01 .            .   *        .            .            .
  1.862E-02 -3.576E+01 .            .   *        .            .            .
  1.871E-02 -3.571E+01 .            .   *        .            .            .
  1.879E-02 -3.566E+01 .            .   *        .            .            .
  1.888E-02 -3.561E+01 .            .   *        .            .            .
  1.897E-02 -3.556E+01 .            .   *        .            .            .
  1.905E-02 -3.551E+01 .            .   *        .            .            .
  1.914E-02 -3.546E+01 .            .   *        .            .            .
  1.923E-02 -3.541E+01 .            .   *        .            .            .
  1.932E-02 -3.536E+01 .            .   *        .            .            .
  1.941E-02 -3.531E+01 .            .   *        .            .            .
  1.950E-02 -3.526E+01 .            .   *        .            .            .
  1.959E-02 -3.521E+01 .            .   *        .            .            .
  1.968E-02 -3.516E+01 .            .   *        .            .            .
  1.977E-02 -3.511E+01 .            .   *        .            .            .
  1.986E-02 -3.506E+01 .            .   *        .            .            .
  1.995E-02 -3.501E+01 .            .   *        .            .            .
  2.004E-02 -3.496E+01 .            .   *        .            .            .
  2.014E-02 -3.491E+01 .            .   *        .            .            .
  2.023E-02 -3.486E+01 .            .   *        .            .            .
  2.032E-02 -3.481E+01 .            .   *        .            .            .
  2.042E-02 -3.476E+01 .            .   *        .            .            .
  2.051E-02 -3.471E+01 .            .   *        .            .            .
  2.061E-02 -3.467E+01 .            .   *        .            .            .
  2.070E-02 -3.462E+01 .            .   *        .            .            .
  2.080E-02 -3.457E+01 .            .   *        .            .            .
  2.089E-02 -3.452E+01 .            .   *        .            .            .
  2.099E-02 -3.447E+01 .            .   *        .            .            .
  2.109E-02 -3.442E+01 .            .   *        .            .            .
  2.118E-02 -3.437E+01 .            .   *        .            .            .
  2.128E-02 -3.432E+01 .            .   *        .            .            .
  2.138E-02 -3.428E+01 .            .   *        .            .            .
  2.148E-02 -3.423E+01 .            .   *        .            .            .
  2.158E-02 -3.418E+01 .            .   *        .            .            .
  2.168E-02 -3.413E+01 .            .   *        .            .            .
  2.178E-02 -3.408E+01 .            .   *        .            .            .
  2.188E-02 -3.403E+01 .            .   *        .            .            .
  2.198E-02 -3.399E+01 .            .   *        .            .            .
  2.208E-02 -3.394E+01 .            .   *        .            .            .
  2.218E-02 -3.389E+01 .            .   *        .            .            .
  2.228E-02 -3.384E+01 .            .   *        .            .            .
  2.239E-02 -3.379E+01 .            .   *        .            .            .
  2.249E-02 -3.375E+01 .            .   *        .            .            .
  2.259E-02 -3.370E+01 .            .   *        .            .            .
  2.270E-02 -3.365E+01 .            .   *        .            .            .
  2.280E-02 -3.360E+01 .            .   *        .            .            .
  2.291E-02 -3.355E+01 .            .   *        .            .            .
  2.301E-02 -3.351E+01 .            .   *        .            .            .
  2.312E-02 -3.346E+01 .            .   *        .            .            .
  2.323E-02 -3.341E+01 .            .   *        .            .            .
  2.333E-02 -3.336E+01 .            .   *        .            .            .
  2.344E-02 -3.332E+01 .            .   *        .            .            .
  2.355E-02 -3.327E+01 .            .   *        .            .            .
  2.366E-02 -3.322E+01 .            .   *        .            .            .
  2.377E-02 -3.318E+01 .            .   *        .            .            .
  2.388E-02 -3.313E+01 .            .   *        .            .            .
  2.399E-02 -3.308E+01 .            .   *        .            .            .
  2.410E-02 -3.303E+01 .            .   *        .            .            .
  2.421E-02 -3.299E+01 .            .   *        .            .            .
  2.432E-02 -3.294E+01 .            .   *        .            .            .
  2.443E-02 -3.289E+01 .            .   *        .            .            .
  2.455E-02 -3.285E+01 .            .   *        .            .            .
  2.466E-02 -3.280E+01 .            .   *        .            .            .
  2.477E-02 -3.275E+01 .            .   *        .            .            .
  2.489E-02 -3.271E+01 .            .   *        .            .            .
  2.500E-02 -3.266E+01 .            .    *       .            .            .
  2.512E-02 -3.261E+01 .            .    *       .            .            .
  2.523E-02 -3.257E+01 .            .    *       .            .            .
  2.535E-02 -3.252E+01 .            .    *       .            .            .
  2.547E-02 -3.247E+01 .            .    *       .            .            .
  2.559E-02 -3.243E+01 .            .    *       .            .            .
  2.570E-02 -3.238E+01 .            .    *       .            .            .
  2.582E-02 -3.233E+01 .            .    *       .            .            .
  2.594E-02 -3.229E+01 .            .    *       .            .            .
  2.606E-02 -3.224E+01 .            .    *       .            .            .
  2.618E-02 -3.220E+01 .            .    *       .            .            .
  2.630E-02 -3.215E+01 .            .    *       .            .            .
  2.642E-02 -3.210E+01 .            .    *       .            .            .
  2.655E-02 -3.206E+01 .            .    *       .            .            .
  2.667E-02 -3.201E+01 .            .    *       .            .            .
  2.679E-02 -3.197E+01 .            .    *       .            .            .
  2.692E-02 -3.192E+01 .            .    *       .            .            .
  2.704E-02 -3.188E+01 .            .    *       .            .            .
  2.716E-02 -3.183E+01 .            .    *       .            .            .
  2.729E-02 -3.178E+01 .            .    *       .            .            .
  2.742E-02 -3.174E+01 .            .    *       .            .            .
  2.754E-02 -3.169E+01 .            .    *       .            .            .
  2.767E-02 -3.165E+01 .            .    *       .            .            .
  2.780E-02 -3.160E+01 .            .    *       .            .            .
  2.793E-02 -3.156E+01 .            .    *       .            .            .
  2.805E-02 -3.151E+01 .            .    *       .            .            .
  2.818E-02 -3.147E+01 .            .    *       .            .            .
  2.831E-02 -3.142E+01 .            .    *       .            .            .
  2.844E-02 -3.137E+01 .            .    *       .            .            .
  2.858E-02 -3.133E+01 .            .    *       .            .            .
  2.871E-02 -3.128E+01 .            .    *       .            .            .
  2.884E-02 -3.124E+01 .            .    *       .            .            .
  2.897E-02 -3.119E+01 .            .    *       .            .            .
  2.911E-02 -3.115E+01 .            .    *       .            .            .
  2.924E-02 -3.110E+01 .            .    *       .            .            .
  2.938E-02 -3.106E+01 .            .    *       .            .            .
  2.951E-02 -3.101E+01 .            .    *       .            .            .
  2.965E-02 -3.097E+01 .            .    *       .            .            .
  2.979E-02 -3.092E+01 .            .    *       .            .            .
  2.992E-02 -3.088E+01 .            .    *       .            .            .
  3.006E-02 -3.083E+01 .            .    *       .            .            .
  3.020E-02 -3.079E+01 .            .    *       .            .            .
  3.034E-02 -3.074E+01 .            .    *       .            .            .
  3.048E-02 -3.070E+01 .            .    *       .            .            .
  3.062E-02 -3.066E+01 .            .    *       .            .            .
  3.076E-02 -3.061E+01 .            .    *       .            .            .
  3.090E-02 -3.057E+01 .            .    *       .            .            .
  3.105E-02 -3.052E+01 .            .    *       .            .            .
  3.119E-02 -3.048E+01 .            .    *       .            .            .
  3.133E-02 -3.043E+01 .            .    *       .            .            .
  3.148E-02 -3.039E+01 .            .    *       .            .            .
  3.162E-02 -3.034E+01 .            .    *       .            .            .
  3.177E-02 -3.030E+01 .            .    *       .            .            .
  3.192E-02 -3.026E+01 .            .    *       .            .            .
  3.206E-02 -3.021E+01 .            .    *       .            .            .
  3.221E-02 -3.017E+01 .            .    *       .            .            .
  3.236E-02 -3.012E+01 .            .    *       .            .            .
  3.251E-02 -3.008E+01 .            .    *       .            .            .
  3.266E-02 -3.003E+01 .            .    *       .            .            .
  3.281E-02 -2.999E+01 .            .    *       .            .            .
  3.296E-02 -2.995E+01 .            .    *       .            .            .
  3.311E-02 -2.990E+01 .            .    *       .            .            .
  3.327E-02 -2.986E+01 .            .    *       .            .            .
  3.342E-02 -2.981E+01 .            .    *       .            .            .
  3.357E-02 -2.977E+01 .            .    *       .            .            .
  3.373E-02 -2.973E+01 .            .    *       .            .            .
  3.388E-02 -2.968E+01 .            .    *       .            .            .
  3.404E-02 -2.964E+01 .            .    *       .            .            .
  3.420E-02 -2.959E+01 .            .    *       .            .            .
  3.436E-02 -2.955E+01 .            .    *       .            .            .
  3.451E-02 -2.951E+01 .            .    *       .            .            .
  3.467E-02 -2.946E+01 .            .    *       .            .            .
  3.483E-02 -2.942E+01 .            .    *       .            .            .
  3.499E-02 -2.938E+01 .            .    *       .            .            .
  3.516E-02 -2.933E+01 .            .    *       .            .            .
  3.532E-02 -2.929E+01 .            .    *       .            .            .
  3.548E-02 -2.925E+01 .            .    *       .            .            .
  3.565E-02 -2.920E+01 .            .    *       .            .            .
  3.581E-02 -2.916E+01 .            .    *       .            .            .
  3.597E-02 -2.912E+01 .            .    *       .            .            .
  3.614E-02 -2.907E+01 .            .    *       .            .            .
  3.631E-02 -2.903E+01 .            .    *       .            .            .
  3.648E-02 -2.898E+01 .            .    *       .            .            .
  3.664E-02 -2.894E+01 .            .    *       .            .            .
  3.681E-02 -2.890E+01 .            .    *       .            .            .
  3.698E-02 -2.886E+01 .            .    *       .            .            .
  3.715E-02 -2.881E+01 .            .     *      .            .            .
  3.733E-02 -2.877E+01 .            .     *      .            .            .
  3.750E-02 -2.873E+01 .            .     *      .            .            .
  3.767E-02 -2.868E+01 .            .     *      .            .            .
  3.784E-02 -2.864E+01 .            .     *      .            .            .
  3.802E-02 -2.860E+01 .            .     *      .            .            .
  3.819E-02 -2.855E+01 .            .     *      .            .            .
  3.837E-02 -2.851E+01 .            .     *      .            .            .
  3.855E-02 -2.847E+01 .            .     *      .            .            .
  3.873E-02 -2.842E+01 .            .     *      .            .            .
  3.890E-02 -2.838E+01 .            .     *      .            .            .
  3.908E-02 -2.834E+01 .            .     *      .            .            .
  3.926E-02 -2.829E+01 .            .     *      .            .            .
  3.945E-02 -2.825E+01 .            .     *      .            .            .
  3.963E-02 -2.821E+01 .            .     *      .            .            .
  3.981E-02 -2.817E+01 .            .     *      .            .            .
  3.999E-02 -2.812E+01 .            .     *      .            .            .
  4.018E-02 -2.808E+01 .            .     *      .            .            .
  4.036E-02 -2.804E+01 .            .     *      .            .            .
  4.055E-02 -2.800E+01 .            .     *      .            .            .
  4.074E-02 -2.795E+01 .            .     *      .            .            .
  4.093E-02 -2.791E+01 .            .     *      .            .            .
  4.112E-02 -2.787E+01 .            .     *      .            .            .
  4.130E-02 -2.782E+01 .            .     *      .            .            .
  4.150E-02 -2.778E+01 .            .     *      .            .            .
  4.169E-02 -2.774E+01 .            .     *      .            .            .
  4.188E-02 -2.770E+01 .            .     *      .            .            .
  4.207E-02 -2.765E+01 .            .     *      .            .            .
  4.227E-02 -2.761E+01 .            .     *      .            .            .
  4.246E-02 -2.757E+01 .            .     *      .            .            .
  4.266E-02 -2.753E+01 .            .     *      .            .            .
  4.285E-02 -2.748E+01 .            .     *      .            .            .
  4.305E-02 -2.744E+01 .            .     *      .            .            .
  4.325E-02 -2.740E+01 .            .     *      .            .            .
  4.345E-02 -2.736E+01 .            .     *      .            .            .
  4.365E-02 -2.731E+01 .            .     *      .            .            .
  4.385E-02 -2.727E+01 .            .     *      .            .            .
  4.406E-02 -2.723E+01 .            .     *      .            .            .
  4.426E-02 -2.719E+01 .            .     *      .            .            .
  4.446E-02 -2.715E+01 .            .     *      .            .            .
  4.467E-02 -2.710E+01 .            .     *      .            .            .
  4.487E-02 -2.706E+01 .            .     *      .            .            .
  4.508E-02 -2.702E+01 .            .     *      .            .            .
  4.529E-02 -2.698E+01 .            .     *      .            .            .
  4.550E-02 -2.693E+01 .            .     *      .            .            .
  4.571E-02 -2.689E+01 .            .     *      .            .            .
  4.592E-02 -2.685E+01 .            .     *      .            .            .
  4.613E-02 -2.681E+01 .            .     *      .            .            .
  4.634E-02 -2.677E+01 .            .     *      .            .            .
  4.656E-02 -2.672E+01 .            .     *      .            .            .
  4.677E-02 -2.668E+01 .            .     *      .            .            .
  4.699E-02 -2.664E+01 .            .     *      .            .            .
  4.721E-02 -2.660E+01 .            .     *      .            .            .
  4.742E-02 -2.656E+01 .            .     *      .            .            .
  4.764E-02 -2.651E+01 .            .     *      .            .            .
  4.786E-02 -2.647E+01 .            .     *      .            .            .
  4.808E-02 -2.643E+01 .            .     *      .            .            .
  4.831E-02 -2.639E+01 .            .     *      .            .            .
  4.853E-02 -2.635E+01 .            .     *      .            .            .
  4.875E-02 -2.630E+01 .            .     *      .            .            .
  4.898E-02 -2.626E+01 .            .     *      .            .            .
  4.920E-02 -2.622E+01 .            .     *      .            .            .
  4.943E-02 -2.618E+01 .            .     *      .            .            .
  4.966E-02 -2.614E+01 .            .     *      .            .            .
  4.989E-02 -2.609E+01 .            .     *      .            .            .
  5.012E-02 -2.605E+01 .            .     *      .            .            .
  5.035E-02 -2.601E+01 .            .     *      .            .            .
  5.058E-02 -2.597E+01 .            .     *      .            .            .
  5.082E-02 -2.593E+01 .            .     *      .            .            .
  5.105E-02 -2.589E+01 .            .     *      .            .            .
  5.129E-02 -2.584E+01 .            .     *      .            .            .
  5.152E-02 -2.580E+01 .            .     *      .            .            .
  5.176E-02 -2.576E+01 .            .     *      .            .            .
  5.200E-02 -2.572E+01 .            .     *      .            .            .
  5.224E-02 -2.568E+01 .            .     *      .            .            .
  5.248E-02 -2.564E+01 .            .     *      .            .            .
  5.272E-02 -2.559E+01 .            .     *      .            .            .
  5.297E-02 -2.555E+01 .            .     *      .            .            .
  5.321E-02 -2.551E+01 .            .     *      .            .            .
  5.346E-02 -2.547E+01 .            .     *      .            .            .
  5.370E-02 -2.543E+01 .            .     *      .            .            .
  5.395E-02 -2.539E+01 .            .     *      .            .            .
  5.420E-02 -2.534E+01 .            .     *      .            .            .
  5.445E-02 -2.530E+01 .            .     *      .            .            .
  5.470E-02 -2.526E+01 .            .     *      .            .            .
  5.495E-02 -2.522E+01 .            .     *      .            .            .
  5.521E-02 -2.518E+01 .            .     *      .            .            .
  5.546E-02 -2.514E+01 .            .     *      .            .            .
  5.572E-02 -2.510E+01 .            .     *      .            .            .
  5.598E-02 -2.505E+01 .            .     *      .            .            .
  5.623E-02 -2.501E+01 .            .     *      .            .            .
  5.649E-02 -2.497E+01 .            .      *     .            .            .
  5.675E-02 -2.493E+01 .            .      *     .            .            .
  5.702E-02 -2.489E+01 .            .      *     .            .            .
  5.728E-02 -2.485E+01 .            .      *     .            .            .
  5.754E-02 -2.481E+01 .            .      *     .            .            .
  5.781E-02 -2.477E+01 .            .      *     .            .            .
  5.808E-02 -2.472E+01 .            .      *     .            .            .
  5.834E-02 -2.468E+01 .            .      *     .            .            .
  5.861E-02 -2.464E+01 .            .      *     .            .            .
  5.888E-02 -2.460E+01 .            .      *     .            .            .
  5.916E-02 -2.456E+01 .            .      *     .            .            .
  5.943E-02 -2.452E+01 .            .      *     .            .            .
  5.970E-02 -2.448E+01 .            .      *     .            .            .
  5.998E-02 -2.444E+01 .            .      *     .            .            .
  6.026E-02 -2.439E+01 .            .      *     .            .            .
  6.053E-02 -2.435E+01 .            .      *     .            .            .
  6.081E-02 -2.431E+01 .            .      *     .            .            .
  6.109E-02 -2.427E+01 .            .      *     .            .            .
  6.138E-02 -2.423E+01 .            .      *     .            .            .
  6.166E-02 -2.419E+01 .            .      *     .            .            .
  6.194E-02 -2.415E+01 .            .      *     .            .            .
  6.223E-02 -2.411E+01 .            .      *     .            .            .
  6.252E-02 -2.406E+01 .            .      *     .            .            .
  6.281E-02 -2.402E+01 .            .      *     .            .            .
  6.310E-02 -2.398E+01 .            .      *     .            .            .
  6.339E-02 -2.394E+01 .            .      *     .            .            .
  6.368E-02 -2.390E+01 .            .      *     .            .            .
  6.397E-02 -2.386E+01 .            .      *     .            .            .
  6.427E-02 -2.382E+01 .            .      *     .            .            .
  6.457E-02 -2.378E+01 .            .      *     .            .            .
  6.486E-02 -2.374E+01 .            .      *     .            .            .
  6.516E-02 -2.370E+01 .            .      *     .            .            .
  6.546E-02 -2.365E+01 .            .      *     .            .            .
  6.577E-02 -2.361E+01 .            .      *     .            .            .
  6.607E-02 -2.357E+01 .            .      *     .            .            .
  6.637E-02 -2.353E+01 .            .      *     .            .            .
  6.668E-02 -2.349E+01 .            .      *     .            .            .
  6.699E-02 -2.345E+01 .            .      *     .            .            .
  6.730E-02 -2.341E+01 .            .      *     .            .            .
  6.761E-02 -2.337E+01 .            .      *     .            .            .
  6.792E-02 -2.333E+01 .            .      *     .            .            .
  6.823E-02 -2.329E+01 .            .      *     .            .            .
  6.855E-02 -2.325E+01 .            .      *     .            .            .
  6.887E-02 -2.320E+01 .            .      *     .            .            .
  6.918E-02 -2.316E+01 .            .      *     .            .            .
  6.950E-02 -2.312E+01 .            .      *     .            .            .
  6.982E-02 -2.308E+01 .            .      *     .            .            .
  7.015E-02 -2.304E+01 .            .      *     .            .            .
  7.047E-02 -2.300E+01 .            .      *     .            .            .
  7.079E-02 -2.296E+01 .            .      *     .            .            .
  7.112E-02 -2.292E+01 .            .      *     .            .            .
  7.145E-02 -2.288E+01 .            .      *     .            .            .
  7.178E-02 -2.284E+01 .            .      *     .            .            .
  7.211E-02 -2.280E+01 .            .      *     .            .            .
  7.244E-02 -2.276E+01 .            .      *     .            .            .
  7.278E-02 -2.272E+01 .            .      *     .            .            .
  7.311E-02 -2.267E+01 .            .      *     .            .            .
  7.345E-02 -2.263E+01 .            .      *     .            .            .
  7.379E-02 -2.259E+01 .            .      *     .            .            .
  7.413E-02 -2.255E+01 .            .      *     .            .            .
  7.447E-02 -2.251E+01 .            .      *     .            .            .
  7.482E-02 -2.247E+01 .            .      *     .            .            .
  7.516E-02 -2.243E+01 .            .      *     .            .            .
  7.551E-02 -2.239E+01 .            .      *     .            .            .
  7.586E-02 -2.235E+01 .            .      *     .            .            .
  7.621E-02 -2.231E+01 .            .      *     .            .            .
  7.656E-02 -2.227E+01 .            .      *     .            .            .
  7.691E-02 -2.223E+01 .            .      *     .            .            .
  7.727E-02 -2.219E+01 .            .      *     .            .            .
  7.762E-02 -2.215E+01 .            .      *     .            .            .
  7.798E-02 -2.211E+01 .            .      *     .            .            .
  7.834E-02 -2.207E+01 .            .      *     .            .            .
  7.870E-02 -2.202E+01 .            .      *     .            .            .
  7.907E-02 -2.198E+01 .            .      *     .            .            .
  7.943E-02 -2.194E+01 .            .      *     .            .            .
  7.980E-02 -2.190E+01 .            .      *     .            .            .
  8.017E-02 -2.186E+01 .            .      *     .            .            .
  8.054E-02 -2.182E+01 .            .      *     .            .            .
  8.091E-02 -2.178E+01 .            .      *     .            .            .
  8.128E-02 -2.174E+01 .            .      *     .            .            .
  8.166E-02 -2.170E+01 .            .      *     .            .            .
  8.204E-02 -2.166E+01 .            .      *     .            .            .
  8.241E-02 -2.162E+01 .            .      *     .            .            .
  8.279E-02 -2.158E+01 .            .      *     .            .            .
  8.318E-02 -2.154E+01 .            .      *     .            .            .
  8.356E-02 -2.150E+01 .            .      *     .            .            .
  8.395E-02 -2.146E+01 .            .      *     .            .            .
  8.433E-02 -2.142E+01 .            .      *     .            .            .
  8.472E-02 -2.138E+01 .            .      *     .            .            .
  8.511E-02 -2.134E+01 .            .      *     .            .            .
  8.551E-02 -2.130E+01 .            .      *     .            .            .
  8.590E-02 -2.126E+01 .            .      *     .            .            .
  8.630E-02 -2.122E+01 .            .      *     .            .            .
  8.670E-02 -2.118E+01 .            .      *     .            .            .
  8.710E-02 -2.113E+01 .            .       *    .            .            .
  8.750E-02 -2.109E+01 .            .       *    .            .            .
  8.790E-02 -2.105E+01 .            .       *    .            .            .
  8.831E-02 -2.101E+01 .            .       *    .            .            .
  8.872E-02 -2.097E+01 .            .       *    .            .            .
  8.913E-02 -2.093E+01 .            .       *    .            .            .
  8.954E-02 -2.089E+01 .            .       *    .            .            .
  8.995E-02 -2.085E+01 .            .       *    .            .            .
  9.037E-02 -2.081E+01 .            .       *    .            .            .
  9.078E-02 -2.077E+01 .            .       *    .            .            .
  9.120E-02 -2.073E+01 .            .       *    .            .            .
  9.162E-02 -2.069E+01 .            .       *    .            .            .
  9.205E-02 -2.065E+01 .            .       *    .            .            .
  9.247E-02 -2.061E+01 .            .       *    .            .            .
  9.290E-02 -2.057E+01 .            .       *    .            .            .
  9.333E-02 -2.053E+01 .            .       *    .            .            .
  9.376E-02 -2.049E+01 .            .       *    .            .            .
  9.419E-02 -2.045E+01 .            .       *    .            .            .
  9.462E-02 -2.041E+01 .            .       *    .            .            .
  9.506E-02 -2.037E+01 .            .       *    .            .            .
  9.550E-02 -2.033E+01 .            .       *    .            .            .
  9.594E-02 -2.029E+01 .            .       *    .            .            .
  9.638E-02 -2.025E+01 .            .       *    .            .            .
  9.683E-02 -2.021E+01 .            .       *    .            .            .
[...]
  3.105E+08 -2.150E+01 .            .      *     .            .            .
  3.119E+08 -2.156E+01 .            .      *     .            .            .
  3.133E+08 -2.162E+01 .            .      *     .            .            .
  3.148E+08 -2.168E+01 .            .      *     .            .            .
  3.162E+08 -2.175E+01 .            .      *     .            .            .
  3.177E+08 -2.181E+01 .            .      *     .            .            .
  3.192E+08 -2.187E+01 .            .      *     .            .            .
  3.206E+08 -2.193E+01 .            .      *     .            .            .
  3.221E+08 -2.199E+01 .            .      *     .            .            .
  3.236E+08 -2.205E+01 .            .      *     .            .            .
  3.251E+08 -2.211E+01 .            .      *     .            .            .
  3.266E+08 -2.218E+01 .            .      *     .            .            .
  3.281E+08 -2.224E+01 .            .      *     .            .            .
  3.296E+08 -2.230E+01 .            .      *     .            .            .
  3.311E+08 -2.236E+01 .            .      *     .            .            .
  3.327E+08 -2.242E+01 .            .      *     .            .            .
  3.342E+08 -2.249E+01 .            .      *     .            .            .
  3.357E+08 -2.255E+01 .            .      *     .            .            .
  3.373E+08 -2.261E+01 .            .      *     .            .            .
  3.388E+08 -2.267E+01 .            .      *     .            .            .
  3.404E+08 -2.274E+01 .            .      *     .            .            .
  3.420E+08 -2.280E+01 .            .      *     .            .            .
  3.436E+08 -2.286E+01 .            .      *     .            .            .
  3.451E+08 -2.292E+01 .            .      *     .            .            .
  3.467E+08 -2.299E+01 .            .      *     .            .            .
  3.483E+08 -2.305E+01 .            .      *     .            .            .
  3.499E+08 -2.311E+01 .            .      *     .            .            .
  3.516E+08 -2.318E+01 .            .      *     .            .            .
  3.532E+08 -2.324E+01 .            .      *     .            .            .
  3.548E+08 -2.330E+01 .            .      *     .            .            .
  3.565E+08 -2.337E+01 .            .      *     .            .            .
  3.581E+08 -2.343E+01 .            .      *     .            .            .
  3.597E+08 -2.349E+01 .            .      *     .            .            .
  3.614E+08 -2.356E+01 .            .      *     .            .            .
  3.631E+08 -2.362E+01 .            .      *     .            .            .
  3.648E+08 -2.369E+01 .            .      *     .            .            .
  3.664E+08 -2.375E+01 .            .      *     .            .            .
  3.681E+08 -2.382E+01 .            .      *     .            .            .
  3.698E+08 -2.388E+01 .            .      *     .            .            .
  3.715E+08 -2.394E+01 .            .      *     .            .            .
  3.733E+08 -2.401E+01 .            .      *     .            .            .
  3.750E+08 -2.407E+01 .            .      *     .            .            .
  3.767E+08 -2.414E+01 .            .      *     .            .            .
  3.784E+08 -2.420E+01 .            .      *     .            .            .
  3.802E+08 -2.427E+01 .            .      *     .            .            .
  3.819E+08 -2.433E+01 .            .      *     .            .            .
  3.837E+08 -2.440E+01 .            .      *     .            .            .
  3.855E+08 -2.446E+01 .            .      *     .            .            .
  3.873E+08 -2.453E+01 .            .      *     .            .            .
  3.890E+08 -2.459E+01 .            .      *     .            .            .
  3.908E+08 -2.466E+01 .            .      *     .            .            .
  3.926E+08 -2.472E+01 .            .      *     .            .            .
  3.945E+08 -2.479E+01 .            .      *     .            .            .
  3.963E+08 -2.485E+01 .            .      *     .            .            .
  3.981E+08 -2.492E+01 .            .      *     .            .            .
  3.999E+08 -2.499E+01 .            .      *     .            .            .
  4.018E+08 -2.505E+01 .            .     *      .            .            .
  4.036E+08 -2.512E+01 .            .     *      .            .            .
  4.055E+08 -2.518E+01 .            .     *      .            .            .
  4.074E+08 -2.525E+01 .            .     *      .            .            .
  4.093E+08 -2.532E+01 .            .     *      .            .            .
  4.112E+08 -2.538E+01 .            .     *      .            .            .
  4.130E+08 -2.545E+01 .            .     *      .            .            .
  4.150E+08 -2.552E+01 .            .     *      .            .            .
  4.169E+08 -2.558E+01 .            .     *      .            .            .
  4.188E+08 -2.565E+01 .            .     *      .            .            .
  4.207E+08 -2.572E+01 .            .     *      .            .            .
  4.227E+08 -2.578E+01 .            .     *      .            .            .
  4.246E+08 -2.585E+01 .            .     *      .            .            .
  4.266E+08 -2.592E+01 .            .     *      .            .            .
  4.285E+08 -2.598E+01 .            .     *      .            .            .
  4.305E+08 -2.605E+01 .            .     *      .            .            .
  4.325E+08 -2.612E+01 .            .     *      .            .            .
  4.345E+08 -2.618E+01 .            .     *      .            .            .
  4.365E+08 -2.625E+01 .            .     *      .            .            .
  4.385E+08 -2.632E+01 .            .     *      .            .            .
  4.406E+08 -2.639E+01 .            .     *      .            .            .
  4.426E+08 -2.645E+01 .            .     *      .            .            .
  4.446E+08 -2.652E+01 .            .     *      .            .            .
  4.467E+08 -2.659E+01 .            .     *      .            .            .
  4.487E+08 -2.666E+01 .            .     *      .            .            .
  4.508E+08 -2.673E+01 .            .     *      .            .            .
  4.529E+08 -2.679E+01 .            .     *      .            .            .
  4.550E+08 -2.686E+01 .            .     *      .            .            .
  4.571E+08 -2.693E+01 .            .     *      .            .            .
  4.592E+08 -2.700E+01 .            .     *      .            .            .
  4.613E+08 -2.707E+01 .            .     *      .            .            .
  4.634E+08 -2.713E+01 .            .     *      .            .            .
  4.656E+08 -2.720E+01 .            .     *      .            .            .
  4.677E+08 -2.727E+01 .            .     *      .            .            .
  4.699E+08 -2.734E+01 .            .     *      .            .            .
  4.721E+08 -2.741E+01 .            .     *      .            .            .
  4.742E+08 -2.748E+01 .            .     *      .            .            .
  4.764E+08 -2.755E+01 .            .     *      .            .            .
  4.786E+08 -2.762E+01 .            .     *      .            .            .
  4.808E+08 -2.768E+01 .            .     *      .            .            .
  4.831E+08 -2.775E+01 .            .     *      .            .            .
  4.853E+08 -2.782E+01 .            .     *      .            .            .
  4.875E+08 -2.789E+01 .            .     *      .            .            .
  4.898E+08 -2.796E+01 .            .     *      .            .            .
  4.920E+08 -2.803E+01 .            .     *      .            .            .
  4.943E+08 -2.810E+01 .            .     *      .            .            .
  4.966E+08 -2.817E+01 .            .     *      .            .            .
  4.989E+08 -2.824E+01 .            .     *      .            .            .
  5.012E+08 -2.831E+01 .            .     *      .            .            .
  5.035E+08 -2.838E+01 .            .     *      .            .            .
  5.058E+08 -2.845E+01 .            .     *      .            .            .
  5.082E+08 -2.852E+01 .            .     *      .            .            .
  5.105E+08 -2.859E+01 .            .     *      .            .            .
  5.129E+08 -2.866E+01 .            .     *      .            .            .
  5.152E+08 -2.873E+01 .            .     *      .            .            .
  5.176E+08 -2.880E+01 .            .     *      .            .            .
  5.200E+08 -2.887E+01 .            .    *       .            .            .
  5.224E+08 -2.894E+01 .            .    *       .            .            .
  5.248E+08 -2.901E+01 .            .    *       .            .            .
  5.272E+08 -2.908E+01 .            .    *       .            .            .
  5.297E+08 -2.915E+01 .            .    *       .            .            .
  5.321E+08 -2.922E+01 .            .    *       .            .            .
  5.346E+08 -2.929E+01 .            .    *       .            .            .
  5.370E+08 -2.936E+01 .            .    *       .            .            .
  5.395E+08 -2.943E+01 .            .    *       .            .            .
  5.420E+08 -2.950E+01 .            .    *       .            .            .
  5.445E+08 -2.957E+01 .            .    *       .            .            .
  5.470E+08 -2.964E+01 .            .    *       .            .            .
  5.495E+08 -2.972E+01 .            .    *       .            .            .
  5.521E+08 -2.979E+01 .            .    *       .            .            .
  5.546E+08 -2.986E+01 .            .    *       .            .            .
  5.572E+08 -2.993E+01 .            .    *       .            .            .
  5.598E+08 -3.000E+01 .            .    *       .            .            .
  5.623E+08 -3.007E+01 .            .    *       .            .            .
  5.649E+08 -3.014E+01 .            .    *       .            .            .
  5.675E+08 -3.021E+01 .            .    *       .            .            .
  5.702E+08 -3.029E+01 .            .    *       .            .            .
  5.728E+08 -3.036E+01 .            .    *       .            .            .
  5.754E+08 -3.043E+01 .            .    *       .            .            .
  5.781E+08 -3.050E+01 .            .    *       .            .            .
  5.808E+08 -3.057E+01 .            .    *       .            .            .
  5.834E+08 -3.064E+01 .            .    *       .            .            .
  5.861E+08 -3.072E+01 .            .    *       .            .            .
  5.888E+08 -3.079E+01 .            .    *       .            .            .
  5.916E+08 -3.086E+01 .            .    *       .            .            .
  5.943E+08 -3.093E+01 .            .    *       .            .            .
  5.970E+08 -3.100E+01 .            .    *       .            .            .
  5.998E+08 -3.108E+01 .            .    *       .            .            .
  6.026E+08 -3.115E+01 .            .    *       .            .            .
  6.053E+08 -3.122E+01 .            .    *       .            .            .
  6.081E+08 -3.129E+01 .            .    *       .            .            .
  6.109E+08 -3.137E+01 .            .    *       .            .            .
  6.138E+08 -3.144E+01 .            .    *       .            .            .
  6.166E+08 -3.151E+01 .            .    *       .            .            .
  6.194E+08 -3.158E+01 .            .    *       .            .            .
  6.223E+08 -3.166E+01 .            .    *       .            .            .
  6.252E+08 -3.173E+01 .            .    *       .            .            .
  6.281E+08 -3.180E+01 .            .    *       .            .            .
  6.310E+08 -3.187E+01 .            .    *       .            .            .
  6.339E+08 -3.195E+01 .            .    *       .            .            .
  6.368E+08 -3.202E+01 .            .    *       .            .            .
  6.397E+08 -3.209E+01 .            .    *       .            .            .
  6.427E+08 -3.216E+01 .            .    *       .            .            .
  6.457E+08 -3.224E+01 .            .    *       .            .            .
  6.486E+08 -3.231E+01 .            .    *       .            .            .
  6.516E+08 -3.238E+01 .            .    *       .            .            .
  6.546E+08 -3.246E+01 .            .    *       .            .            .
  6.577E+08 -3.253E+01 .            .    *       .            .            .
  6.607E+08 -3.260E+01 .            .    *       .            .            .
  6.637E+08 -3.268E+01 .            .    *       .            .            .
  6.668E+08 -3.275E+01 .            .   *        .            .            .
  6.699E+08 -3.282E+01 .            .   *        .            .            .
  6.730E+08 -3.290E+01 .            .   *        .            .            .
  6.761E+08 -3.297E+01 .            .   *        .            .            .
  6.792E+08 -3.304E+01 .            .   *        .            .            .
  6.823E+08 -3.312E+01 .            .   *        .            .            .
  6.855E+08 -3.319E+01 .            .   *        .            .            .
  6.887E+08 -3.326E+01 .            .   *        .            .            .
  6.918E+08 -3.334E+01 .            .   *        .            .            .
  6.950E+08 -3.341E+01 .            .   *        .            .            .
  6.982E+08 -3.349E+01 .            .   *        .            .            .
  7.015E+08 -3.356E+01 .            .   *        .            .            .
  7.047E+08 -3.363E+01 .            .   *        .            .            .
  7.079E+08 -3.371E+01 .            .   *        .            .            .
  7.112E+08 -3.378E+01 .            .   *        .            .            .
  7.145E+08 -3.386E+01 .            .   *        .            .            .
  7.178E+08 -3.393E+01 .            .   *        .            .            .
  7.211E+08 -3.400E+01 .            .   *        .            .            .
  7.244E+08 -3.408E+01 .            .   *        .            .            .
  7.278E+08 -3.415E+01 .            .   *        .            .            .
  7.311E+08 -3.423E+01 .            .   *        .            .            .
  7.345E+08 -3.430E+01 .            .   *        .            .            .
  7.379E+08 -3.438E+01 .            .   *        .            .            .
  7.413E+08 -3.445E+01 .            .   *        .            .            .
  7.447E+08 -3.452E+01 .            .   *        .            .            .
  7.482E+08 -3.460E+01 .            .   *        .            .            .
  7.516E+08 -3.467E+01 .            .   *        .            .            .
  7.551E+08 -3.475E+01 .            .   *        .            .            .
  7.586E+08 -3.482E+01 .            .   *        .            .            .
  7.621E+08 -3.490E+01 .            .   *        .            .            .
  7.656E+08 -3.497E+01 .            .   *        .            .            .
  7.691E+08 -3.505E+01 .            .   *        .            .            .
  7.727E+08 -3.512E+01 .            .   *        .            .            .
  7.762E+08 -3.520E+01 .            .   *        .            .            .
  7.798E+08 -3.527E+01 .            .   *        .            .            .
  7.834E+08 -3.535E+01 .            .   *        .            .            .
  7.870E+08 -3.542E+01 .            .   *        .            .            .
  7.907E+08 -3.550E+01 .            .   *        .            .            .
  7.943E+08 -3.557E+01 .            .   *        .            .            .
  7.980E+08 -3.565E+01 .            .   *        .            .            .
  8.017E+08 -3.572E+01 .            .   *        .            .            .
  8.054E+08 -3.580E+01 .            .   *        .            .            .
  8.091E+08 -3.587E+01 .            .   *        .            .            .
  8.128E+08 -3.595E+01 .            .   *        .            .            .
  8.166E+08 -3.602E+01 .            .   *        .            .            .
  8.204E+08 -3.610E+01 .            .   *        .            .            .
  8.241E+08 -3.617E+01 .            .   *        .            .            .
  8.279E+08 -3.625E+01 .            .   *        .            .            .
  8.318E+08 -3.632E+01 .            .   *        .            .            .
  8.356E+08 -3.640E+01 .            .   *        .            .            .
  8.395E+08 -3.647E+01 .            .   *        .            .            .
  8.433E+08 -3.655E+01 .            .  *         .            .            .
  8.472E+08 -3.662E+01 .            .  *         .            .            .
  8.511E+08 -3.670E+01 .            .  *         .            .            .
  8.551E+08 -3.678E+01 .            .  *         .            .            .
  8.590E+08 -3.685E+01 .            .  *         .            .            .
  8.630E+08 -3.693E+01 .            .  *         .            .            .
  8.670E+08 -3.700E+01 .            .  *         .            .            .
  8.710E+08 -3.708E+01 .            .  *         .            .            .
  8.750E+08 -3.715E+01 .            .  *         .            .            .
  8.790E+08 -3.723E+01 .            .  *         .            .            .
  8.831E+08 -3.730E+01 .            .  *         .            .            .
  8.872E+08 -3.738E+01 .            .  *         .            .            .
  8.913E+08 -3.746E+01 .            .  *         .            .            .
  8.954E+08 -3.753E+01 .            .  *         .            .            .
  8.995E+08 -3.761E+01 .            .  *         .            .            .
  9.037E+08 -3.768E+01 .            .  *         .            .            .
  9.078E+08 -3.776E+01 .            .  *         .            .            .
  9.120E+08 -3.784E+01 .            .  *         .            .            .
  9.162E+08 -3.791E+01 .            .  *         .            .            .
  9.205E+08 -3.799E+01 .            .  *         .            .            .
  9.247E+08 -3.806E+01 .            .  *         .            .            .
  9.290E+08 -3.814E+01 .            .  *         .            .            .
  9.333E+08 -3.822E+01 .            .  *         .            .            .
  9.376E+08 -3.829E+01 .            .  *         .            .            .
  9.419E+08 -3.837E+01 .            .  *         .            .            .
  9.462E+08 -3.844E+01 .            .  *         .            .            .
  9.506E+08 -3.852E+01 .            .  *         .            .            .
  9.550E+08 -3.860E+01 .            .  *         .            .            .
  9.594E+08 -3.867E+01 .            .  *         .            .            .
  9.638E+08 -3.875E+01 .            .  *         .            .            .
  9.683E+08 -3.883E+01 .            .  *         .            .            .
  9.727E+08 -3.890E+01 .            .  *         .            .            .
  9.772E+08 -3.898E+01 .            .  *         .            .            .
  9.817E+08 -3.906E+01 .            .  *         .            .            .
  9.863E+08 -3.913E+01 .            .  *         .            .            .
  9.908E+08 -3.921E+01 .            .  *         .            .            .
  9.954E+08 -3.928E+01 .            .  *         .            .            .
  1.000E+09 -3.936E+01 .            .  *         .            .            .
                       - - - - - - - - - - - - - - - - - - - - - - - - - - - 




          JOB CONCLUDED

**** 05/17/22 16:03:44 ******* PSpice Lite (March 2016) ******* ID# 10813 ****

  


 ****     JOB STATISTICS SUMMARY


******************************************************************************



  Total job time (using Solver 1)   =         .33
