
**** 05/17/22 13:58:59 ******* PSpice Lite (March 2016) ******* ID# 10813 ****

  


 ****     CIRCUIT DESCRIPTION


******************************************************************************



vdd 4 0 dc 20v
vs 1 0 ac 100mv
rsig 1 2 50
c1 2 3 0.1u
r1 3 4 560k
r2 3 0 82k
m1 5 3 0 0 aaa1
.model aaa1 nmos(kp=1.073u W=0.12 L=2u Vto=1.73 Lambda=0.002 Tox=2u Cgso=73.61p Cgdo=6.487p Cbd=74.46p)
c2 5 7 200u
rL 7 0 390
rd 4 5 390
.op
.ac dec 500 0.001 1000meg
.plot ac vdb(7)
.probe
.end

**** 05/17/22 13:58:59 ******* PSpice Lite (March 2016) ******* ID# 10813 ****

  


 ****     MOSFET MODEL PARAMETERS


******************************************************************************




               aaa1            
               NMOS            
       LEVEL    1            
           L    2.000000E-06 
           W     .12         
         VTO    1.73         
          KP    1.073000E-06 
       GAMMA    0            
         PHI     .6          
      LAMBDA    2.000000E-03 
          IS   10.000000E-15 
          JS    0            
          PB     .8          
        PBSW     .8          
         CBD   74.460000E-12 
          CJ    0            
        CJSW    0            
        CGSO   73.610000E-12 
        CGDO    6.487000E-12 
        CGBO    0            
         TOX    2.000000E-06 
          XJ    0            
       UCRIT   10.000000E+03 
      DIOMOD    1            
         VFB    0            
        LETA    0            
        WETA    0            
          U0    0            
        TEMP    0            
         VDD    5            
       XPART    0            


**** 05/17/22 13:58:59 ******* PSpice Lite (March 2016) ******* ID# 10813 ****

  


 ****     SMALL SIGNAL BIAS SOLUTION       TEMPERATURE =   27.000 DEG C


******************************************************************************



 NODE   VOLTAGE     NODE   VOLTAGE     NODE   VOLTAGE     NODE   VOLTAGE


(    1)    0.0000  (    2)    0.0000  (    3)    2.5545  (    4)   20.0000      

(    5)   11.2730  (    7)    0.0000  




    VOLTAGE SOURCE CURRENTS
    NAME         CURRENT

    vdd         -2.241E-02
    vs           0.000E+00

    TOTAL POWER DISSIPATION   4.48E-01  WATTS


**** 05/17/22 13:58:59 ******* PSpice Lite (March 2016) ******* ID# 10813 ****

  


 ****     OPERATING POINT INFORMATION      TEMPERATURE =   27.000 DEG C


******************************************************************************






**** MOSFETS


NAME         m1        
MODEL        aaa1      
ID           2.24E-02 
VGS          2.55E+00 
VDS          1.13E+01 
VBS          0.00E+00 
VTH          1.73E+00 
VDSAT        8.25E-01 
Lin0/Sat1   -1.00E+00 
if          -1.00E+00 
ir          -1.00E+00 
TAU         -1.00E+00 
GM           5.43E-02 
GDS          4.38E-05 
GMB          0.00E+00 
CBD          1.92E-11 
CBS          0.00E+00 
CGSOV        8.83E-12 
CGDOV        7.78E-13 
CGBOV        0.00E+00 
CGS          2.76E-12 
CGD          0.00E+00 
CGB          0.00E+00 
**** 05/17/22 13:58:59 ******* PSpice Lite (March 2016) ******* ID# 10813 ****

  


 ****     AC ANALYSIS                      TEMPERATURE =   27.000 DEG C


******************************************************************************



  FREQ        VDB(7)      


(*)----------   -1.5000E+02  -1.0000E+02  -5.0000E+01   0.0000E+00   5.0000E+01
                       _ _ _ _ _ _ _ _ _ _ _ _ _ _ _ _ _ _ _ _ _ _ _ _ _ _ _
  1.000E-03 -1.468E+02 .*           .            .            .            .
  1.005E-03 -1.467E+02 .*           .            .            .            .
  1.009E-03 -1.466E+02 .*           .            .            .            .
  1.014E-03 -1.465E+02 .*           .            .            .            .
  1.019E-03 -1.465E+02 .*           .            .            .            .
  1.023E-03 -1.464E+02 .*           .            .            .            .
  1.028E-03 -1.463E+02 .*           .            .            .            .
  1.033E-03 -1.462E+02 .*           .            .            .            .
  1.038E-03 -1.461E+02 .*           .            .            .            .
  1.042E-03 -1.461E+02 .*           .            .            .            .
  1.047E-03 -1.460E+02 .*           .            .            .            .
  1.052E-03 -1.459E+02 .*           .            .            .            .
  1.057E-03 -1.458E+02 .*           .            .            .            .
  1.062E-03 -1.457E+02 .*           .            .            .            .
  1.067E-03 -1.457E+02 .*           .            .            .            .
  1.072E-03 -1.456E+02 .*           .            .            .            .
  1.076E-03 -1.455E+02 .*           .            .            .            .
  1.081E-03 -1.454E+02 .*           .            .            .            .
  1.086E-03 -1.453E+02 .*           .            .            .            .
  1.091E-03 -1.453E+02 .*           .            .            .            .
  1.096E-03 -1.452E+02 .*           .            .            .            .
  1.102E-03 -1.451E+02 .*           .            .            .            .
  1.107E-03 -1.450E+02 .*           .            .            .            .
  1.112E-03 -1.449E+02 .*           .            .            .            .
  1.117E-03 -1.449E+02 .*           .            .            .            .
  1.122E-03 -1.448E+02 .*           .            .            .            .
  1.127E-03 -1.447E+02 .*           .            .            .            .
  1.132E-03 -1.446E+02 .*           .            .            .            .
  1.138E-03 -1.445E+02 .*           .            .            .            .
  1.143E-03 -1.445E+02 .*           .            .            .            .
  1.148E-03 -1.444E+02 .*           .            .            .            .
  1.153E-03 -1.443E+02 .*           .            .            .            .
  1.159E-03 -1.442E+02 . *          .            .            .            .
  1.164E-03 -1.441E+02 . *          .            .            .            .
  1.170E-03 -1.441E+02 . *          .            .            .            .
  1.175E-03 -1.440E+02 . *          .            .            .            .
  1.180E-03 -1.439E+02 . *          .            .            .            .
  1.186E-03 -1.438E+02 . *          .            .            .            .
  1.191E-03 -1.437E+02 . *          .            .            .            .
  1.197E-03 -1.437E+02 . *          .            .            .            .
  1.202E-03 -1.436E+02 . *          .            .            .            .
  1.208E-03 -1.435E+02 . *          .            .            .            .
  1.213E-03 -1.434E+02 . *          .            .            .            .
  1.219E-03 -1.433E+02 . *          .            .            .            .
  1.225E-03 -1.433E+02 . *          .            .            .            .
  1.230E-03 -1.432E+02 . *          .            .            .            .
  1.236E-03 -1.431E+02 . *          .            .            .            .
  1.242E-03 -1.430E+02 . *          .            .            .            .
  1.247E-03 -1.429E+02 . *          .            .            .            .
  1.253E-03 -1.429E+02 . *          .            .            .            .
  1.259E-03 -1.428E+02 . *          .            .            .            .
  1.265E-03 -1.427E+02 . *          .            .            .            .
  1.271E-03 -1.426E+02 . *          .            .            .            .
  1.276E-03 -1.425E+02 . *          .            .            .            .
  1.282E-03 -1.425E+02 . *          .            .            .            .
  1.288E-03 -1.424E+02 . *          .            .            .            .
  1.294E-03 -1.423E+02 . *          .            .            .            .
  1.300E-03 -1.422E+02 . *          .            .            .            .
  1.306E-03 -1.421E+02 . *          .            .            .            .
  1.312E-03 -1.421E+02 . *          .            .            .            .
  1.318E-03 -1.420E+02 . *          .            .            .            .
  1.324E-03 -1.419E+02 . *          .            .            .            .
  1.330E-03 -1.418E+02 . *          .            .            .            .
  1.337E-03 -1.417E+02 . *          .            .            .            .
  1.343E-03 -1.417E+02 . *          .            .            .            .
  1.349E-03 -1.416E+02 . *          .            .            .            .
  1.355E-03 -1.415E+02 . *          .            .            .            .
  1.361E-03 -1.414E+02 . *          .            .            .            .
  1.368E-03 -1.413E+02 . *          .            .            .            .
  1.374E-03 -1.413E+02 . *          .            .            .            .
  1.380E-03 -1.412E+02 . *          .            .            .            .
  1.387E-03 -1.411E+02 . *          .            .            .            .
  1.393E-03 -1.410E+02 . *          .            .            .            .
  1.400E-03 -1.409E+02 . *          .            .            .            .
  1.406E-03 -1.409E+02 . *          .            .            .            .
  1.413E-03 -1.408E+02 . *          .            .            .            .
  1.419E-03 -1.407E+02 . *          .            .            .            .
  1.426E-03 -1.406E+02 . *          .            .            .            .
  1.432E-03 -1.405E+02 . *          .            .            .            .
  1.439E-03 -1.405E+02 . *          .            .            .            .
  1.445E-03 -1.404E+02 .  *         .            .            .            .
  1.452E-03 -1.403E+02 .  *         .            .            .            .
  1.459E-03 -1.402E+02 .  *         .            .            .            .
  1.466E-03 -1.401E+02 .  *         .            .            .            .
  1.472E-03 -1.401E+02 .  *         .            .            .            .
  1.479E-03 -1.400E+02 .  *         .            .            .            .
  1.486E-03 -1.399E+02 .  *         .            .            .            .
  1.493E-03 -1.398E+02 .  *         .            .            .            .
  1.500E-03 -1.397E+02 .  *         .            .            .            .
  1.507E-03 -1.397E+02 .  *         .            .            .            .
  1.514E-03 -1.396E+02 .  *         .            .            .            .
  1.521E-03 -1.395E+02 .  *         .            .            .            .
  1.528E-03 -1.394E+02 .  *         .            .            .            .
  1.535E-03 -1.393E+02 .  *         .            .            .            .
  1.542E-03 -1.393E+02 .  *         .            .            .            .
  1.549E-03 -1.392E+02 .  *         .            .            .            .
  1.556E-03 -1.391E+02 .  *         .            .            .            .
  1.563E-03 -1.390E+02 .  *         .            .            .            .
  1.570E-03 -1.389E+02 .  *         .            .            .            .
  1.578E-03 -1.389E+02 .  *         .            .            .            .
  1.585E-03 -1.388E+02 .  *         .            .            .            .
  1.592E-03 -1.387E+02 .  *         .            .            .            .
  1.600E-03 -1.386E+02 .  *         .            .            .            .
  1.607E-03 -1.385E+02 .  *         .            .            .            .
  1.614E-03 -1.385E+02 .  *         .            .            .            .
  1.622E-03 -1.384E+02 .  *         .            .            .            .
  1.629E-03 -1.383E+02 .  *         .            .            .            .
  1.637E-03 -1.382E+02 .  *         .            .            .            .
  1.644E-03 -1.381E+02 .  *         .            .            .            .
  1.652E-03 -1.381E+02 .  *         .            .            .            .
  1.660E-03 -1.380E+02 .  *         .            .            .            .
  1.667E-03 -1.379E+02 .  *         .            .            .            .
  1.675E-03 -1.378E+02 .  *         .            .            .            .
  1.683E-03 -1.377E+02 .  *         .            .            .            .
  1.690E-03 -1.377E+02 .  *         .            .            .            .
  1.698E-03 -1.376E+02 .  *         .            .            .            .
  1.706E-03 -1.375E+02 .  *         .            .            .            .
  1.714E-03 -1.374E+02 .  *         .            .            .            .
  1.722E-03 -1.373E+02 .  *         .            .            .            .
  1.730E-03 -1.373E+02 .  *         .            .            .            .
  1.738E-03 -1.372E+02 .  *         .            .            .            .
  1.746E-03 -1.371E+02 .  *         .            .            .            .
  1.754E-03 -1.370E+02 .  *         .            .            .            .
  1.762E-03 -1.369E+02 .  *         .            .            .            .
  1.770E-03 -1.369E+02 .  *         .            .            .            .
  1.778E-03 -1.368E+02 .  *         .            .            .            .
  1.786E-03 -1.367E+02 .  *         .            .            .            .
  1.795E-03 -1.366E+02 .  *         .            .            .            .
  1.803E-03 -1.365E+02 .   *        .            .            .            .
  1.811E-03 -1.365E+02 .   *        .            .            .            .
  1.820E-03 -1.364E+02 .   *        .            .            .            .
  1.828E-03 -1.363E+02 .   *        .            .            .            .
  1.837E-03 -1.362E+02 .   *        .            .            .            .
  1.845E-03 -1.361E+02 .   *        .            .            .            .
  1.854E-03 -1.361E+02 .   *        .            .            .            .
  1.862E-03 -1.360E+02 .   *        .            .            .            .
  1.871E-03 -1.359E+02 .   *        .            .            .            .
  1.879E-03 -1.358E+02 .   *        .            .            .            .
  1.888E-03 -1.357E+02 .   *        .            .            .            .
  1.897E-03 -1.357E+02 .   *        .            .            .            .
  1.905E-03 -1.356E+02 .   *        .            .            .            .
  1.914E-03 -1.355E+02 .   *        .            .            .            .
  1.923E-03 -1.354E+02 .   *        .            .            .            .
  1.932E-03 -1.353E+02 .   *        .            .            .            .
  1.941E-03 -1.353E+02 .   *        .            .            .            .
  1.950E-03 -1.352E+02 .   *        .            .            .            .
  1.959E-03 -1.351E+02 .   *        .            .            .            .
  1.968E-03 -1.350E+02 .   *        .            .            .            .
  1.977E-03 -1.349E+02 .   *        .            .            .            .
  1.986E-03 -1.349E+02 .   *        .            .            .            .
  1.995E-03 -1.348E+02 .   *        .            .            .            .
  2.004E-03 -1.347E+02 .   *        .            .            .            .
  2.014E-03 -1.346E+02 .   *        .            .            .            .
  2.023E-03 -1.345E+02 .   *        .            .            .            .
  2.032E-03 -1.345E+02 .   *        .            .            .            .
  2.042E-03 -1.344E+02 .   *        .            .            .            .
  2.051E-03 -1.343E+02 .   *        .            .            .            .
  2.061E-03 -1.342E+02 .   *        .            .            .            .
  2.070E-03 -1.341E+02 .   *        .            .            .            .
  2.080E-03 -1.341E+02 .   *        .            .            .            .
  2.089E-03 -1.340E+02 .   *        .            .            .            .
  2.099E-03 -1.339E+02 .   *        .            .            .            .
  2.109E-03 -1.338E+02 .   *        .            .            .            .
  2.118E-03 -1.337E+02 .   *        .            .            .            .
  2.128E-03 -1.337E+02 .   *        .            .            .            .
  2.138E-03 -1.336E+02 .   *        .            .            .            .
  2.148E-03 -1.335E+02 .   *        .            .            .            .
  2.158E-03 -1.334E+02 .   *        .            .            .            .
  2.168E-03 -1.333E+02 .   *        .            .            .            .
  2.178E-03 -1.333E+02 .   *        .            .            .            .
  2.188E-03 -1.332E+02 .   *        .            .            .            .
  2.198E-03 -1.331E+02 .   *        .            .            .            .
  2.208E-03 -1.330E+02 .   *        .            .            .            .
  2.218E-03 -1.329E+02 .   *        .            .            .            .
  2.228E-03 -1.329E+02 .   *        .            .            .            .
  2.239E-03 -1.328E+02 .   *        .            .            .            .
  2.249E-03 -1.327E+02 .    *       .            .            .            .
  2.259E-03 -1.326E+02 .    *       .            .            .            .
  2.270E-03 -1.325E+02 .    *       .            .            .            .
  2.280E-03 -1.325E+02 .    *       .            .            .            .
  2.291E-03 -1.324E+02 .    *       .            .            .            .
  2.301E-03 -1.323E+02 .    *       .            .            .            .
  2.312E-03 -1.322E+02 .    *       .            .            .            .
  2.323E-03 -1.321E+02 .    *       .            .            .            .
  2.333E-03 -1.321E+02 .    *       .            .            .            .
  2.344E-03 -1.320E+02 .    *       .            .            .            .
  2.355E-03 -1.319E+02 .    *       .            .            .            .
  2.366E-03 -1.318E+02 .    *       .            .            .            .
  2.377E-03 -1.317E+02 .    *       .            .            .            .
  2.388E-03 -1.317E+02 .    *       .            .            .            .
  2.399E-03 -1.316E+02 .    *       .            .            .            .
  2.410E-03 -1.315E+02 .    *       .            .            .            .
  2.421E-03 -1.314E+02 .    *       .            .            .            .
  2.432E-03 -1.313E+02 .    *       .            .            .            .
  2.443E-03 -1.313E+02 .    *       .            .            .            .
  2.455E-03 -1.312E+02 .    *       .            .            .            .
  2.466E-03 -1.311E+02 .    *       .            .            .            .
  2.477E-03 -1.310E+02 .    *       .            .            .            .
  2.489E-03 -1.309E+02 .    *       .            .            .            .
  2.500E-03 -1.309E+02 .    *       .            .            .            .
  2.512E-03 -1.308E+02 .    *       .            .            .            .
  2.523E-03 -1.307E+02 .    *       .            .            .            .
  2.535E-03 -1.306E+02 .    *       .            .            .            .
  2.547E-03 -1.305E+02 .    *       .            .            .            .
  2.559E-03 -1.305E+02 .    *       .            .            .            .
  2.570E-03 -1.304E+02 .    *       .            .            .            .
  2.582E-03 -1.303E+02 .    *       .            .            .            .
  2.594E-03 -1.302E+02 .    *       .            .            .            .
  2.606E-03 -1.301E+02 .    *       .            .            .            .
  2.618E-03 -1.301E+02 .    *       .            .            .            .
  2.630E-03 -1.300E+02 .    *       .            .            .            .
  2.642E-03 -1.299E+02 .    *       .            .            .            .
  2.655E-03 -1.298E+02 .    *       .            .            .            .
  2.667E-03 -1.297E+02 .    *       .            .            .            .
  2.679E-03 -1.297E+02 .    *       .            .            .            .
  2.692E-03 -1.296E+02 .    *       .            .            .            .
  2.704E-03 -1.295E+02 .    *       .            .            .            .
  2.716E-03 -1.294E+02 .    *       .            .            .            .
  2.729E-03 -1.293E+02 .    *       .            .            .            .
  2.742E-03 -1.293E+02 .    *       .            .            .            .
  2.754E-03 -1.292E+02 .    *       .            .            .            .
  2.767E-03 -1.291E+02 .    *       .            .            .            .
  2.780E-03 -1.290E+02 .    *       .            .            .            .
  2.793E-03 -1.289E+02 .    *       .            .            .            .
  2.805E-03 -1.289E+02 .    *       .            .            .            .
  2.818E-03 -1.288E+02 .     *      .            .            .            .
  2.831E-03 -1.287E+02 .     *      .            .            .            .
  2.844E-03 -1.286E+02 .     *      .            .            .            .
  2.858E-03 -1.285E+02 .     *      .            .            .            .
  2.871E-03 -1.285E+02 .     *      .            .            .            .
  2.884E-03 -1.284E+02 .     *      .            .            .            .
  2.897E-03 -1.283E+02 .     *      .            .            .            .
  2.911E-03 -1.282E+02 .     *      .            .            .            .
  2.924E-03 -1.281E+02 .     *      .            .            .            .
  2.938E-03 -1.281E+02 .     *      .            .            .            .
  2.951E-03 -1.280E+02 .     *      .            .            .            .
  2.965E-03 -1.279E+02 .     *      .            .            .            .
  2.979E-03 -1.278E+02 .     *      .            .            .            .
  2.992E-03 -1.277E+02 .     *      .            .            .            .
  3.006E-03 -1.277E+02 .     *      .            .            .            .
  3.020E-03 -1.276E+02 .     *      .            .            .            .
  3.034E-03 -1.275E+02 .     *      .            .            .            .
  3.048E-03 -1.274E+02 .     *      .            .            .            .
  3.062E-03 -1.273E+02 .     *      .            .            .            .
  3.076E-03 -1.273E+02 .     *      .            .            .            .
  3.090E-03 -1.272E+02 .     *      .            .            .            .
  3.105E-03 -1.271E+02 .     *      .            .            .            .
  3.119E-03 -1.270E+02 .     *      .            .            .            .
  3.133E-03 -1.269E+02 .     *      .            .            .            .
  3.148E-03 -1.269E+02 .     *      .            .            .            .
  3.162E-03 -1.268E+02 .     *      .            .            .            .
  3.177E-03 -1.267E+02 .     *      .            .            .            .
  3.192E-03 -1.266E+02 .     *      .            .            .            .
  3.206E-03 -1.265E+02 .     *      .            .            .            .
  3.221E-03 -1.265E+02 .     *      .            .            .            .
  3.236E-03 -1.264E+02 .     *      .            .            .            .
  3.251E-03 -1.263E+02 .     *      .            .            .            .
  3.266E-03 -1.262E+02 .     *      .            .            .            .
  3.281E-03 -1.261E+02 .     *      .            .            .            .
  3.296E-03 -1.261E+02 .     *      .            .            .            .
  3.311E-03 -1.260E+02 .     *      .            .            .            .
  3.327E-03 -1.259E+02 .     *      .            .            .            .
  3.342E-03 -1.258E+02 .     *      .            .            .            .
  3.357E-03 -1.257E+02 .     *      .            .            .            .
  3.373E-03 -1.257E+02 .     *      .            .            .            .
  3.388E-03 -1.256E+02 .     *      .            .            .            .
  3.404E-03 -1.255E+02 .     *      .            .            .            .
  3.420E-03 -1.254E+02 .     *      .            .            .            .
  3.436E-03 -1.253E+02 .     *      .            .            .            .
  3.451E-03 -1.253E+02 .     *      .            .            .            .
  3.467E-03 -1.252E+02 .     *      .            .            .            .
  3.483E-03 -1.251E+02 .     *      .            .            .            .
  3.499E-03 -1.250E+02 .     *      .            .            .            .
  3.516E-03 -1.249E+02 .      *     .            .            .            .
  3.532E-03 -1.249E+02 .      *     .            .            .            .
  3.548E-03 -1.248E+02 .      *     .            .            .            .
  3.565E-03 -1.247E+02 .      *     .            .            .            .
  3.581E-03 -1.246E+02 .      *     .            .            .            .
  3.597E-03 -1.245E+02 .      *     .            .            .            .
  3.614E-03 -1.245E+02 .      *     .            .            .            .
  3.631E-03 -1.244E+02 .      *     .            .            .            .
  3.648E-03 -1.243E+02 .      *     .            .            .            .
  3.664E-03 -1.242E+02 .      *     .            .            .            .
  3.681E-03 -1.241E+02 .      *     .            .            .            .
  3.698E-03 -1.241E+02 .      *     .            .            .            .
  3.715E-03 -1.240E+02 .      *     .            .            .            .
  3.733E-03 -1.239E+02 .      *     .            .            .            .
  3.750E-03 -1.238E+02 .      *     .            .            .            .
  3.767E-03 -1.237E+02 .      *     .            .            .            .
  3.784E-03 -1.237E+02 .      *     .            .            .            .
  3.802E-03 -1.236E+02 .      *     .            .            .            .
  3.819E-03 -1.235E+02 .      *     .            .            .            .
  3.837E-03 -1.234E+02 .      *     .            .            .            .
  3.855E-03 -1.233E+02 .      *     .            .            .            .
  3.873E-03 -1.233E+02 .      *     .            .            .            .
  3.890E-03 -1.232E+02 .      *     .            .            .            .
  3.908E-03 -1.231E+02 .      *     .            .            .            .
  3.926E-03 -1.230E+02 .      *     .            .            .            .
  3.945E-03 -1.229E+02 .      *     .            .            .            .
  3.963E-03 -1.229E+02 .      *     .            .            .            .
  3.981E-03 -1.228E+02 .      *     .            .            .            .
  3.999E-03 -1.227E+02 .      *     .            .            .            .
  4.018E-03 -1.226E+02 .      *     .            .            .            .
  4.036E-03 -1.225E+02 .      *     .            .            .            .
  4.055E-03 -1.225E+02 .      *     .            .            .            .
  4.074E-03 -1.224E+02 .      *     .            .            .            .
  4.093E-03 -1.223E+02 .      *     .            .            .            .
  4.112E-03 -1.222E+02 .      *     .            .            .            .
  4.130E-03 -1.221E+02 .      *     .            .            .            .
  4.150E-03 -1.221E+02 .      *     .            .            .            .
  4.169E-03 -1.220E+02 .      *     .            .            .            .
  4.188E-03 -1.219E+02 .      *     .            .            .            .
  4.207E-03 -1.218E+02 .      *     .            .            .            .
  4.227E-03 -1.217E+02 .      *     .            .            .            .
  4.246E-03 -1.217E+02 .      *     .            .            .            .
  4.266E-03 -1.216E+02 .      *     .            .            .            .
  4.285E-03 -1.215E+02 .      *     .            .            .            .
  4.305E-03 -1.214E+02 .      *     .            .            .            .
  4.325E-03 -1.213E+02 .      *     .            .            .            .
  4.345E-03 -1.213E+02 .      *     .            .            .            .
  4.365E-03 -1.212E+02 .      *     .            .            .            .
  4.385E-03 -1.211E+02 .       *    .            .            .            .
  4.406E-03 -1.210E+02 .       *    .            .            .            .
  4.426E-03 -1.209E+02 .       *    .            .            .            .
  4.446E-03 -1.209E+02 .       *    .            .            .            .
  4.467E-03 -1.208E+02 .       *    .            .            .            .
  4.487E-03 -1.207E+02 .       *    .            .            .            .
  4.508E-03 -1.206E+02 .       *    .            .            .            .
  4.529E-03 -1.205E+02 .       *    .            .            .            .
  4.550E-03 -1.205E+02 .       *    .            .            .            .
  4.571E-03 -1.204E+02 .       *    .            .            .            .
  4.592E-03 -1.203E+02 .       *    .            .            .            .
  4.613E-03 -1.202E+02 .       *    .            .            .            .
  4.634E-03 -1.201E+02 .       *    .            .            .            .
  4.656E-03 -1.201E+02 .       *    .            .            .            .
  4.677E-03 -1.200E+02 .       *    .            .            .            .
  4.699E-03 -1.199E+02 .       *    .            .            .            .
  4.721E-03 -1.198E+02 .       *    .            .            .            .
  4.742E-03 -1.197E+02 .       *    .            .            .            .
  4.764E-03 -1.197E+02 .       *    .            .            .            .
  4.786E-03 -1.196E+02 .       *    .            .            .            .
  4.808E-03 -1.195E+02 .       *    .            .            .            .
  4.831E-03 -1.194E+02 .       *    .            .            .            .
  4.853E-03 -1.193E+02 .       *    .            .            .            .
  4.875E-03 -1.193E+02 .       *    .            .            .            .
  4.898E-03 -1.192E+02 .       *    .            .            .            .
  4.920E-03 -1.191E+02 .       *    .            .            .            .
  4.943E-03 -1.190E+02 .       *    .            .            .            .
  4.966E-03 -1.189E+02 .       *    .            .            .            .
  4.989E-03 -1.189E+02 .       *    .            .            .            .
  5.012E-03 -1.188E+02 .       *    .            .            .            .
  5.035E-03 -1.187E+02 .       *    .            .            .            .
  5.058E-03 -1.186E+02 .       *    .            .            .            .
  5.082E-03 -1.185E+02 .       *    .            .            .            .
  5.105E-03 -1.185E+02 .       *    .            .            .            .
  5.129E-03 -1.184E+02 .       *    .            .            .            .
  5.152E-03 -1.183E+02 .       *    .            .            .            .
  5.176E-03 -1.182E+02 .       *    .            .            .            .
  5.200E-03 -1.181E+02 .       *    .            .            .            .
  5.224E-03 -1.181E+02 .       *    .            .            .            .
  5.248E-03 -1.180E+02 .       *    .            .            .            .
  5.272E-03 -1.179E+02 .       *    .            .            .            .
  5.297E-03 -1.178E+02 .       *    .            .            .            .
  5.321E-03 -1.177E+02 .       *    .            .            .            .
  5.346E-03 -1.177E+02 .       *    .            .            .            .
  5.370E-03 -1.176E+02 .       *    .            .            .            .
  5.395E-03 -1.175E+02 .       *    .            .            .            .
  5.420E-03 -1.174E+02 .       *    .            .            .            .
  5.445E-03 -1.173E+02 .       *    .            .            .            .
  5.470E-03 -1.173E+02 .        *   .            .            .            .
  5.495E-03 -1.172E+02 .        *   .            .            .            .
  5.521E-03 -1.171E+02 .        *   .            .            .            .
  5.546E-03 -1.170E+02 .        *   .            .            .            .
  5.572E-03 -1.169E+02 .        *   .            .            .            .
  5.598E-03 -1.169E+02 .        *   .            .            .            .
  5.623E-03 -1.168E+02 .        *   .            .            .            .
  5.649E-03 -1.167E+02 .        *   .            .            .            .
  5.675E-03 -1.166E+02 .        *   .            .            .            .
  5.702E-03 -1.165E+02 .        *   .            .            .            .
  5.728E-03 -1.165E+02 .        *   .            .            .            .
  5.754E-03 -1.164E+02 .        *   .            .            .            .
  5.781E-03 -1.163E+02 .        *   .            .            .            .
  5.808E-03 -1.162E+02 .        *   .            .            .            .
  5.834E-03 -1.161E+02 .        *   .            .            .            .
  5.861E-03 -1.161E+02 .        *   .            .            .            .
  5.888E-03 -1.160E+02 .        *   .            .            .            .
  5.916E-03 -1.159E+02 .        *   .            .            .            .
  5.943E-03 -1.158E+02 .        *   .            .            .            .
  5.970E-03 -1.157E+02 .        *   .            .            .            .
  5.998E-03 -1.157E+02 .        *   .            .            .            .
  6.026E-03 -1.156E+02 .        *   .            .            .            .
  6.053E-03 -1.155E+02 .        *   .            .            .            .
  6.081E-03 -1.154E+02 .        *   .            .            .            .
  6.109E-03 -1.153E+02 .        *   .            .            .            .
  6.138E-03 -1.153E+02 .        *   .            .            .            .
  6.166E-03 -1.152E+02 .        *   .            .            .            .
  6.194E-03 -1.151E+02 .        *   .            .            .            .
  6.223E-03 -1.150E+02 .        *   .            .            .            .
  6.252E-03 -1.149E+02 .        *   .            .            .            .
  6.281E-03 -1.149E+02 .        *   .            .            .            .
  6.310E-03 -1.148E+02 .        *   .            .            .            .
  6.339E-03 -1.147E+02 .        *   .            .            .            .
  6.368E-03 -1.146E+02 .        *   .            .            .            .
  6.397E-03 -1.145E+02 .        *   .            .            .            .
  6.427E-03 -1.145E+02 .        *   .            .            .            .
  6.457E-03 -1.144E+02 .        *   .            .            .            .
  6.486E-03 -1.143E+02 .        *   .            .            .            .
  6.516E-03 -1.142E+02 .        *   .            .            .            .
  6.546E-03 -1.141E+02 .        *   .            .            .            .
  6.577E-03 -1.141E+02 .        *   .            .            .            .
  6.607E-03 -1.140E+02 .        *   .            .            .            .
  6.637E-03 -1.139E+02 .        *   .            .            .            .
  6.668E-03 -1.138E+02 .        *   .            .            .            .
  6.699E-03 -1.137E+02 .        *   .            .            .            .
  6.730E-03 -1.137E+02 .        *   .            .            .            .
  6.761E-03 -1.136E+02 .        *   .            .            .            .
  6.792E-03 -1.135E+02 .        *   .            .            .            .
  6.823E-03 -1.134E+02 .         *  .            .            .            .
  6.855E-03 -1.133E+02 .         *  .            .            .            .
  6.887E-03 -1.133E+02 .         *  .            .            .            .
  6.918E-03 -1.132E+02 .         *  .            .            .            .
  6.950E-03 -1.131E+02 .         *  .            .            .            .
  6.982E-03 -1.130E+02 .         *  .            .            .            .
  7.015E-03 -1.129E+02 .         *  .            .            .            .
  7.047E-03 -1.129E+02 .         *  .            .            .            .
  7.079E-03 -1.128E+02 .         *  .            .            .            .
  7.112E-03 -1.127E+02 .         *  .            .            .            .
  7.145E-03 -1.126E+02 .         *  .            .            .            .
  7.178E-03 -1.125E+02 .         *  .            .            .            .
  7.211E-03 -1.125E+02 .         *  .            .            .            .
  7.244E-03 -1.124E+02 .         *  .            .            .            .
  7.278E-03 -1.123E+02 .         *  .            .            .            .
  7.311E-03 -1.122E+02 .         *  .            .            .            .
  7.345E-03 -1.121E+02 .         *  .            .            .            .
  7.379E-03 -1.121E+02 .         *  .            .            .            .
  7.413E-03 -1.120E+02 .         *  .            .            .            .
  7.447E-03 -1.119E+02 .         *  .            .            .            .
  7.482E-03 -1.118E+02 .         *  .            .            .            .
  7.516E-03 -1.117E+02 .         *  .            .            .            .
  7.551E-03 -1.117E+02 .         *  .            .            .            .
  7.586E-03 -1.116E+02 .         *  .            .            .            .
  7.621E-03 -1.115E+02 .         *  .            .            .            .
  7.656E-03 -1.114E+02 .         *  .            .            .            .
  7.691E-03 -1.113E+02 .         *  .            .            .            .
  7.727E-03 -1.113E+02 .         *  .            .            .            .
  7.762E-03 -1.112E+02 .         *  .            .            .            .
  7.798E-03 -1.111E+02 .         *  .            .            .            .
  7.834E-03 -1.110E+02 .         *  .            .            .            .
  7.870E-03 -1.109E+02 .         *  .            .            .            .
  7.907E-03 -1.109E+02 .         *  .            .            .            .
  7.943E-03 -1.108E+02 .         *  .            .            .            .
  7.980E-03 -1.107E+02 .         *  .            .            .            .
  8.017E-03 -1.106E+02 .         *  .            .            .            .
  8.054E-03 -1.105E+02 .         *  .            .            .            .
  8.091E-03 -1.105E+02 .         *  .            .            .            .
  8.128E-03 -1.104E+02 .         *  .            .            .            .
  8.166E-03 -1.103E+02 .         *  .            .            .            .
  8.204E-03 -1.102E+02 .         *  .            .            .            .
  8.241E-03 -1.101E+02 .         *  .            .            .            .
  8.279E-03 -1.101E+02 .         *  .            .            .            .
  8.318E-03 -1.100E+02 .         *  .            .            .            .
  8.356E-03 -1.099E+02 .         *  .            .            .            .
  8.395E-03 -1.098E+02 .         *  .            .            .            .
  8.433E-03 -1.097E+02 .         *  .            .            .            .
  8.472E-03 -1.097E+02 .         *  .            .            .            .
  8.511E-03 -1.096E+02 .          * .            .            .            .
  8.551E-03 -1.095E+02 .          * .            .            .            .
  8.590E-03 -1.094E+02 .          * .            .            .            .
  8.630E-03 -1.093E+02 .          * .            .            .            .
  8.670E-03 -1.093E+02 .          * .            .            .            .
  8.710E-03 -1.092E+02 .          * .            .            .            .
  8.750E-03 -1.091E+02 .          * .            .            .            .
  8.790E-03 -1.090E+02 .          * .            .            .            .
  8.831E-03 -1.089E+02 .          * .            .            .            .
  8.872E-03 -1.089E+02 .          * .            .            .            .
  8.913E-03 -1.088E+02 .          * .            .            .            .
  8.954E-03 -1.087E+02 .          * .            .            .            .
  8.995E-03 -1.086E+02 .          * .            .            .            .
  9.037E-03 -1.085E+02 .          * .            .            .            .
  9.078E-03 -1.085E+02 .          * .            .            .            .
  9.120E-03 -1.084E+02 .          * .            .            .            .
  9.162E-03 -1.083E+02 .          * .            .            .            .
  9.205E-03 -1.082E+02 .          * .            .            .            .
  9.247E-03 -1.081E+02 .          * .            .            .            .
  9.290E-03 -1.081E+02 .          * .            .            .            .
  9.333E-03 -1.080E+02 .          * .            .            .            .
  9.376E-03 -1.079E+02 .          * .            .            .            .
  9.419E-03 -1.078E+02 .          * .            .            .            .
  9.462E-03 -1.077E+02 .          * .            .            .            .
  9.506E-03 -1.077E+02 .          * .            .            .            .
  9.550E-03 -1.076E+02 .          * .            .            .            .
  9.594E-03 -1.075E+02 .          * .            .            .            .
  9.638E-03 -1.074E+02 .          * .            .            .            .
  9.683E-03 -1.073E+02 .          * .            .            .            .
  9.727E-03 -1.073E+02 .          * .            .            .            .
  9.772E-03 -1.072E+02 .          * .            .            .            .
  9.817E-03 -1.071E+02 .          * .            .            .            .
  9.863E-03 -1.070E+02 .          * .            .            .            .
  9.908E-03 -1.069E+02 .          * .            .            .            .
  9.954E-03 -1.069E+02 .          * .            .            .            .
  1.000E-02 -1.068E+02 .          * .            .            .            .
  1.005E-02 -1.067E+02 .          * .            .            .            .
  1.009E-02 -1.066E+02 .          * .            .            .            .
  1.014E-02 -1.065E+02 .          * .            .            .            .
  1.019E-02 -1.065E+02 .          * .            .            .            .
  1.023E-02 -1.064E+02 .          * .            .            .            .
  1.028E-02 -1.063E+02 .          * .            .            .            .
  1.033E-02 -1.062E+02 .          * .            .            .            .
  1.038E-02 -1.061E+02 .          * .            .            .            .
  1.042E-02 -1.061E+02 .          * .            .            .            .
  1.047E-02 -1.060E+02 .          * .            .            .            .
  1.052E-02 -1.059E+02 .          * .            .            .            .
  1.057E-02 -1.058E+02 .          * .            .            .            .
  1.062E-02 -1.057E+02 .           *.            .            .            .
  1.067E-02 -1.057E+02 .           *.            .            .            .
  1.072E-02 -1.056E+02 .           *.            .            .            .
  1.076E-02 -1.055E+02 .           *.            .            .            .
  1.081E-02 -1.054E+02 .           *.            .            .            .
  1.086E-02 -1.053E+02 .           *.            .            .            .
  1.091E-02 -1.053E+02 .           *.            .            .            .
  1.096E-02 -1.052E+02 .           *.            .            .            .
  1.102E-02 -1.051E+02 .           *.            .            .            .
  1.107E-02 -1.050E+02 .           *.            .            .            .
  1.112E-02 -1.049E+02 .           *.            .            .            .
  1.117E-02 -1.049E+02 .           *.            .            .            .
  1.122E-02 -1.048E+02 .           *.            .            .            .
  1.127E-02 -1.047E+02 .           *.            .            .            .
  1.132E-02 -1.046E+02 .           *.            .            .            .
  1.138E-02 -1.045E+02 .           *.            .            .            .
  1.143E-02 -1.045E+02 .           *.            .            .            .
  1.148E-02 -1.044E+02 .           *.            .            .            .
  1.153E-02 -1.043E+02 .           *.            .            .            .
  1.159E-02 -1.042E+02 .           *.            .            .            .
  1.164E-02 -1.041E+02 .           *.            .            .            .
  1.170E-02 -1.041E+02 .           *.            .            .            .
  1.175E-02 -1.040E+02 .           *.            .            .            .
  1.180E-02 -1.039E+02 .           *.            .            .            .
  1.186E-02 -1.038E+02 .           *.            .            .            .
  1.191E-02 -1.037E+02 .           *.            .            .            .
  1.197E-02 -1.037E+02 .           *.            .            .            .
  1.202E-02 -1.036E+02 .           *.            .            .            .
  1.208E-02 -1.035E+02 .           *.            .            .            .
  1.213E-02 -1.034E+02 .           *.            .            .            .
  1.219E-02 -1.033E+02 .           *.            .            .            .
  1.225E-02 -1.033E+02 .           *.            .            .            .
  1.230E-02 -1.032E+02 .           *.            .            .            .
  1.236E-02 -1.031E+02 .           *.            .            .            .
  1.242E-02 -1.030E+02 .           *.            .            .            .
  1.247E-02 -1.029E+02 .           *.            .            .            .
  1.253E-02 -1.029E+02 .           *.            .            .            .
  1.259E-02 -1.028E+02 .           *.            .            .            .
  1.265E-02 -1.027E+02 .           *.            .            .            .
  1.271E-02 -1.026E+02 .           *.            .            .            .
  1.276E-02 -1.025E+02 .           *.            .            .            .
  1.282E-02 -1.025E+02 .           *.            .            .            .
  1.288E-02 -1.024E+02 .           *.            .            .            .
  1.294E-02 -1.023E+02 .           *.            .            .            .
  1.300E-02 -1.022E+02 .           *.            .            .            .
  1.306E-02 -1.021E+02 .           *.            .            .            .
  1.312E-02 -1.021E+02 .           *.            .            .            .
  1.318E-02 -1.020E+02 .           *.            .            .            .
  1.324E-02 -1.019E+02 .            *            .            .            .
  1.330E-02 -1.018E+02 .            *            .            .            .
  1.337E-02 -1.017E+02 .            *            .            .            .
  1.343E-02 -1.017E+02 .            *            .            .            .
  1.349E-02 -1.016E+02 .            *            .            .            .
  1.355E-02 -1.015E+02 .            *            .            .            .
  1.361E-02 -1.014E+02 .            *            .            .            .
  1.368E-02 -1.013E+02 .            *            .            .            .
  1.374E-02 -1.013E+02 .            *            .            .            .
  1.380E-02 -1.012E+02 .            *            .            .            .
  1.387E-02 -1.011E+02 .            *            .            .            .
  1.393E-02 -1.010E+02 .            *            .            .            .
  1.400E-02 -1.009E+02 .            *            .            .            .
  1.406E-02 -1.009E+02 .            *            .            .            .
  1.413E-02 -1.008E+02 .            *            .            .            .
  1.419E-02 -1.007E+02 .            *            .            .            .
  1.426E-02 -1.006E+02 .            *            .            .            .
  1.432E-02 -1.005E+02 .            *            .            .            .
  1.439E-02 -1.005E+02 .            *            .            .            .
  1.445E-02 -1.004E+02 .            *            .            .            .
  1.452E-02 -1.003E+02 .            *            .            .            .
  1.459E-02 -1.002E+02 .            *            .            .            .
  1.466E-02 -1.001E+02 .            *            .            .            .
  1.472E-02 -1.001E+02 .            *            .            .            .
  1.479E-02 -9.998E+01 .            *            .            .            .
  1.486E-02 -9.990E+01 .            *            .            .            .
  1.493E-02 -9.982E+01 .            *            .            .            .
  1.500E-02 -9.974E+01 .            *            .            .            .
  1.507E-02 -9.966E+01 .            *            .            .            .
  1.514E-02 -9.958E+01 .            *            .            .            .
  1.521E-02 -9.950E+01 .            *            .            .            .
  1.528E-02 -9.942E+01 .            *            .            .            .
  1.535E-02 -9.934E+01 .            *            .            .            .
  1.542E-02 -9.926E+01 .            *            .            .            .
  1.549E-02 -9.918E+01 .            *            .            .            .
  1.556E-02 -9.910E+01 .            *            .            .            .
  1.563E-02 -9.902E+01 .            *            .            .            .
  1.570E-02 -9.894E+01 .            *            .            .            .
  1.578E-02 -9.886E+01 .            *            .            .            .
  1.585E-02 -9.878E+01 .            *            .            .            .
  1.592E-02 -9.870E+01 .            *            .            .            .
  1.600E-02 -9.862E+01 .            *            .            .            .
  1.607E-02 -9.854E+01 .            *            .            .            .
  1.614E-02 -9.846E+01 .            *            .            .            .
  1.622E-02 -9.838E+01 .            *            .            .            .
  1.629E-02 -9.830E+01 .            *            .            .            .
  1.637E-02 -9.822E+01 .            *            .            .            .
  1.644E-02 -9.814E+01 .            *            .            .            .
  1.652E-02 -9.806E+01 .            .*           .            .            .
  1.660E-02 -9.798E+01 .            .*           .            .            .
  1.667E-02 -9.790E+01 .            .*           .            .            .
  1.675E-02 -9.782E+01 .            .*           .            .            .
  1.683E-02 -9.774E+01 .            .*           .            .            .
  1.690E-02 -9.766E+01 .            .*           .            .            .
  1.698E-02 -9.758E+01 .            .*           .            .            .
  1.706E-02 -9.750E+01 .            .*           .            .            .
  1.714E-02 -9.742E+01 .            .*           .            .            .
  1.722E-02 -9.734E+01 .            .*           .            .            .
  1.730E-02 -9.726E+01 .            .*           .            .            .
  1.738E-02 -9.718E+01 .            .*           .            .            .
  1.746E-02 -9.710E+01 .            .*           .            .            .
  1.754E-02 -9.702E+01 .            .*           .            .            .
  1.762E-02 -9.694E+01 .            .*           .            .            .
  1.770E-02 -9.686E+01 .            .*           .            .            .
  1.778E-02 -9.678E+01 .            .*           .            .            .
  1.786E-02 -9.670E+01 .            .*           .            .            .
  1.795E-02 -9.662E+01 .            .*           .            .            .
  1.803E-02 -9.654E+01 .            .*           .            .            .
  1.811E-02 -9.646E+01 .            .*           .            .            .
  1.820E-02 -9.638E+01 .            .*           .            .            .
  1.828E-02 -9.630E+01 .            .*           .            .            .
  1.837E-02 -9.622E+01 .            .*           .            .            .
  1.845E-02 -9.614E+01 .            .*           .            .            .
  1.854E-02 -9.606E+01 .            .*           .            .            .
  1.862E-02 -9.598E+01 .            .*           .            .            .
  1.871E-02 -9.590E+01 .            .*           .            .            .
  1.879E-02 -9.582E+01 .            .*           .            .            .
  1.888E-02 -9.574E+01 .            .*           .            .            .
  1.897E-02 -9.566E+01 .            .*           .            .            .
  1.905E-02 -9.558E+01 .            .*           .            .            .
  1.914E-02 -9.550E+01 .            .*           .            .            .
  1.923E-02 -9.542E+01 .            .*           .            .            .
  1.932E-02 -9.534E+01 .            .*           .            .            .
  1.941E-02 -9.526E+01 .            .*           .            .            .
  1.950E-02 -9.518E+01 .            .*           .            .            .
  1.959E-02 -9.510E+01 .            .*           .            .            .
  1.968E-02 -9.502E+01 .            .*           .            .            .
  1.977E-02 -9.494E+01 .            .*           .            .            .
  1.986E-02 -9.486E+01 .            .*           .            .            .
  1.995E-02 -9.478E+01 .            .*           .            .            .
  2.004E-02 -9.470E+01 .            .*           .            .            .
  2.014E-02 -9.462E+01 .            .*           .            .            .
  2.023E-02 -9.454E+01 .            .*           .            .            .
  2.032E-02 -9.446E+01 .            .*           .            .            .
  2.042E-02 -9.438E+01 .            .*           .            .            .
  2.051E-02 -9.430E+01 .            .*           .            .            .
  2.061E-02 -9.422E+01 .            . *          .            .            .
  2.070E-02 -9.414E+01 .            . *          .            .            .
  2.080E-02 -9.406E+01 .            . *          .            .            .
  2.089E-02 -9.398E+01 .            . *          .            .            .
  2.099E-02 -9.390E+01 .            . *          .            .            .
  2.109E-02 -9.382E+01 .            . *          .            .            .
  2.118E-02 -9.374E+01 .            . *          .            .            .
  2.128E-02 -9.366E+01 .            . *          .            .            .
  2.138E-02 -9.358E+01 .            . *          .            .            .
  2.148E-02 -9.350E+01 .            . *          .            .            .
  2.158E-02 -9.342E+01 .            . *          .            .            .
  2.168E-02 -9.334E+01 .            . *          .            .            .
  2.178E-02 -9.326E+01 .            . *          .            .            .
  2.188E-02 -9.318E+01 .            . *          .            .            .
  2.198E-02 -9.310E+01 .            . *          .            .            .
  2.208E-02 -9.302E+01 .            . *          .            .            .
  2.218E-02 -9.294E+01 .            . *          .            .            .
  2.228E-02 -9.286E+01 .            . *          .            .            .
  2.239E-02 -9.278E+01 .            . *          .            .            .
  2.249E-02 -9.270E+01 .            . *          .            .            .
  2.259E-02 -9.262E+01 .            . *          .            .            .
  2.270E-02 -9.254E+01 .            . *          .            .            .
  2.280E-02 -9.246E+01 .            . *          .            .            .
  2.291E-02 -9.238E+01 .            . *          .            .            .
  2.301E-02 -9.230E+01 .            . *          .            .            .
  2.312E-02 -9.222E+01 .            . *          .            .            .
  2.323E-02 -9.214E+01 .            . *          .            .            .
  2.333E-02 -9.206E+01 .            . *          .            .            .
  2.344E-02 -9.198E+01 .            . *          .            .            .
  2.355E-02 -9.190E+01 .            . *          .            .            .
  2.366E-02 -9.182E+01 .            . *          .            .            .
  2.377E-02 -9.174E+01 .            . *          .            .            .
  2.388E-02 -9.166E+01 .            . *          .            .            .
  2.399E-02 -9.158E+01 .            . *          .            .            .
  2.410E-02 -9.150E+01 .            . *          .            .            .
  2.421E-02 -9.142E+01 .            . *          .            .            .
  2.432E-02 -9.134E+01 .            . *          .            .            .
  2.443E-02 -9.126E+01 .            . *          .            .            .
  2.455E-02 -9.118E+01 .            . *          .            .            .
  2.466E-02 -9.110E+01 .            . *          .            .            .
  2.477E-02 -9.102E+01 .            . *          .            .            .
  2.489E-02 -9.094E+01 .            . *          .            .            .
  2.500E-02 -9.086E+01 .            . *          .            .            .
  2.512E-02 -9.078E+01 .            . *          .            .            .
  2.523E-02 -9.070E+01 .            . *          .            .            .
  2.535E-02 -9.062E+01 .            . *          .            .            .
  2.547E-02 -9.054E+01 .            . *          .            .            .
  2.559E-02 -9.046E+01 .            . *          .            .            .
  2.570E-02 -9.038E+01 .            .  *         .            .            .
  2.582E-02 -9.030E+01 .            .  *         .            .            .
  2.594E-02 -9.022E+01 .            .  *         .            .            .
  2.606E-02 -9.014E+01 .            .  *         .            .            .
  2.618E-02 -9.006E+01 .            .  *         .            .            .
  2.630E-02 -8.998E+01 .            .  *         .            .            .
  2.642E-02 -8.990E+01 .            .  *         .            .            .
  2.655E-02 -8.982E+01 .            .  *         .            .            .
  2.667E-02 -8.974E+01 .            .  *         .            .            .
  2.679E-02 -8.966E+01 .            .  *         .            .            .
  2.692E-02 -8.958E+01 .            .  *         .            .            .
  2.704E-02 -8.950E+01 .            .  *         .            .            .
  2.716E-02 -8.942E+01 .            .  *         .            .            .
  2.729E-02 -8.934E+01 .            .  *         .            .            .
  2.742E-02 -8.926E+01 .            .  *         .            .            .
  2.754E-02 -8.918E+01 .            .  *         .            .            .
  2.767E-02 -8.910E+01 .            .  *         .            .            .
  2.780E-02 -8.902E+01 .            .  *         .            .            .
  2.793E-02 -8.894E+01 .            .  *         .            .            .
  2.805E-02 -8.886E+01 .            .  *         .            .            .
  2.818E-02 -8.878E+01 .            .  *         .            .            .
  2.831E-02 -8.870E+01 .            .  *         .            .            .
  2.844E-02 -8.862E+01 .            .  *         .            .            .
  2.858E-02 -8.854E+01 .            .  *         .            .            .
  2.871E-02 -8.846E+01 .            .  *         .            .            .
  2.884E-02 -8.838E+01 .            .  *         .            .            .
  2.897E-02 -8.830E+01 .            .  *         .            .            .
  2.911E-02 -8.822E+01 .            .  *         .            .            .
  2.924E-02 -8.814E+01 .            .  *         .            .            .
  2.938E-02 -8.806E+01 .            .  *         .            .            .
  2.951E-02 -8.798E+01 .            .  *         .            .            .
  2.965E-02 -8.790E+01 .            .  *         .            .            .
  2.979E-02 -8.782E+01 .            .  *         .            .            .
  2.992E-02 -8.774E+01 .            .  *         .            .            .
  3.006E-02 -8.766E+01 .            .  *         .            .            .
  3.020E-02 -8.758E+01 .            .  *         .            .            .
  3.034E-02 -8.750E+01 .            .  *         .            .            .
  3.048E-02 -8.742E+01 .            .  *         .            .            .
  3.062E-02 -8.734E+01 .            .  *         .            .            .
  3.076E-02 -8.726E+01 .            .  *         .            .            .
  3.090E-02 -8.718E+01 .            .  *         .            .            .
  3.105E-02 -8.710E+01 .            .  *         .            .            .
  3.119E-02 -8.702E+01 .            .  *         .            .            .
  3.133E-02 -8.694E+01 .            .  *         .            .            .
  3.148E-02 -8.686E+01 .            .  *         .            .            .
  3.162E-02 -8.678E+01 .            .  *         .            .            .
  3.177E-02 -8.670E+01 .            .  *         .            .            .
  3.192E-02 -8.662E+01 .            .  *         .            .            .
  3.206E-02 -8.654E+01 .            .   *        .            .            .
  3.221E-02 -8.646E+01 .            .   *        .            .            .
  3.236E-02 -8.638E+01 .            .   *        .            .            .
  3.251E-02 -8.630E+01 .            .   *        .            .            .
  3.266E-02 -8.622E+01 .            .   *        .            .            .
  3.281E-02 -8.614E+01 .            .   *        .            .            .
  3.296E-02 -8.606E+01 .            .   *        .            .            .
  3.311E-02 -8.598E+01 .            .   *        .            .            .
  3.327E-02 -8.590E+01 .            .   *        .            .            .
  3.342E-02 -8.582E+01 .            .   *        .            .            .
  3.357E-02 -8.574E+01 .            .   *        .            .            .
  3.373E-02 -8.566E+01 .            .   *        .            .            .
  3.388E-02 -8.558E+01 .            .   *        .            .            .
  3.404E-02 -8.550E+01 .            .   *        .            .            .
  3.420E-02 -8.542E+01 .            .   *        .            .            .
  3.436E-02 -8.534E+01 .            .   *        .            .            .
  3.451E-02 -8.526E+01 .            .   *        .            .            .
  3.467E-02 -8.518E+01 .            .   *        .            .            .
  3.483E-02 -8.510E+01 .            .   *        .            .            .
  3.499E-02 -8.502E+01 .            .   *        .            .            .
  3.516E-02 -8.494E+01 .            .   *        .            .            .
  3.532E-02 -8.486E+01 .            .   *        .            .            .
  3.548E-02 -8.478E+01 .            .   *        .            .            .
  3.565E-02 -8.470E+01 .            .   *        .            .            .
  3.581E-02 -8.462E+01 .            .   *        .            .            .
  3.597E-02 -8.454E+01 .            .   *        .            .            .
  3.614E-02 -8.446E+01 .            .   *        .            .            .
  3.631E-02 -8.438E+01 .            .   *        .            .            .
  3.648E-02 -8.430E+01 .            .   *        .            .            .
  3.664E-02 -8.422E+01 .            .   *        .            .            .
  3.681E-02 -8.414E+01 .            .   *        .            .            .
  3.698E-02 -8.406E+01 .            .   *        .            .            .
  3.715E-02 -8.398E+01 .            .   *        .            .            .
  3.733E-02 -8.390E+01 .            .   *        .            .            .
  3.750E-02 -8.382E+01 .            .   *        .            .            .
  3.767E-02 -8.374E+01 .            .   *        .            .            .
  3.784E-02 -8.366E+01 .            .   *        .            .            .
  3.802E-02 -8.358E+01 .            .   *        .            .            .
  3.819E-02 -8.350E+01 .            .   *        .            .            .
  3.837E-02 -8.342E+01 .            .   *        .            .            .
  3.855E-02 -8.334E+01 .            .   *        .            .            .
  3.873E-02 -8.326E+01 .            .   *        .            .            .
  3.890E-02 -8.318E+01 .            .   *        .            .            .
  3.908E-02 -8.310E+01 .            .   *        .            .            .
  3.926E-02 -8.302E+01 .            .   *        .            .            .
  3.945E-02 -8.294E+01 .            .   *        .            .            .
  3.963E-02 -8.286E+01 .            .   *        .            .            .
  3.981E-02 -8.278E+01 .            .   *        .            .            .
  3.999E-02 -8.270E+01 .            .   *        .            .            .
  4.018E-02 -8.262E+01 .            .    *       .            .            .
  4.036E-02 -8.254E+01 .            .    *       .            .            .
  4.055E-02 -8.246E+01 .            .    *       .            .            .
  4.074E-02 -8.238E+01 .            .    *       .            .            .
  4.093E-02 -8.230E+01 .            .    *       .            .            .
  4.112E-02 -8.222E+01 .            .    *       .            .            .
  4.130E-02 -8.214E+01 .            .    *       .            .            .
  4.150E-02 -8.206E+01 .            .    *       .            .            .
  4.169E-02 -8.198E+01 .            .    *       .            .            .
  4.188E-02 -8.190E+01 .            .    *       .            .            .
  4.207E-02 -8.182E+01 .            .    *       .            .            .
  4.227E-02 -8.174E+01 .            .    *       .            .            .
  4.246E-02 -8.166E+01 .            .    *       .            .            .
  4.266E-02 -8.158E+01 .            .    *       .            .            .
  4.285E-02 -8.150E+01 .            .    *       .            .            .
  4.305E-02 -8.142E+01 .            .    *       .            .            .
  4.325E-02 -8.134E+01 .            .    *       .            .            .
  4.345E-02 -8.126E+01 .            .    *       .            .            .
  4.365E-02 -8.118E+01 .            .    *       .            .            .
  4.385E-02 -8.110E+01 .            .    *       .            .            .
  4.406E-02 -8.102E+01 .            .    *       .            .            .
  4.426E-02 -8.094E+01 .            .    *       .            .            .
  4.446E-02 -8.086E+01 .            .    *       .            .            .
  4.467E-02 -8.078E+01 .            .    *       .            .            .
  4.487E-02 -8.070E+01 .            .    *       .            .            .
  4.508E-02 -8.062E+01 .            .    *       .            .            .
  4.529E-02 -8.054E+01 .            .    *       .            .            .
  4.550E-02 -8.046E+01 .            .    *       .            .            .
  4.571E-02 -8.038E+01 .            .    *       .            .            .
  4.592E-02 -8.030E+01 .            .    *       .            .            .
  4.613E-02 -8.022E+01 .            .    *       .            .            .
  4.634E-02 -8.014E+01 .            .    *       .            .            .
  4.656E-02 -8.006E+01 .            .    *       .            .            .
  4.677E-02 -7.998E+01 .            .    *       .            .            .
  4.699E-02 -7.990E+01 .            .    *       .            .            .
  4.721E-02 -7.982E+01 .            .    *       .            .            .
  4.742E-02 -7.974E+01 .            .    *       .            .            .
  4.764E-02 -7.966E+01 .            .    *       .            .            .
  4.786E-02 -7.958E+01 .            .    *       .            .            .
  4.808E-02 -7.950E+01 .            .    *       .            .            .
  4.831E-02 -7.942E+01 .            .    *       .            .            .
  4.853E-02 -7.934E+01 .            .    *       .            .            .
  4.875E-02 -7.926E+01 .            .    *       .            .            .
  4.898E-02 -7.918E+01 .            .    *       .            .            .
  4.920E-02 -7.910E+01 .            .    *       .            .            .
  4.943E-02 -7.902E+01 .            .    *       .            .            .
  4.966E-02 -7.894E+01 .            .    *       .            .            .
  4.989E-02 -7.886E+01 .            .    *       .            .            .
  5.012E-02 -7.879E+01 .            .     *      .            .            .
  5.035E-02 -7.871E+01 .            .     *      .            .            .
  5.058E-02 -7.863E+01 .            .     *      .            .            .
  5.082E-02 -7.855E+01 .            .     *      .            .            .
  5.105E-02 -7.847E+01 .            .     *      .            .            .
  5.129E-02 -7.839E+01 .            .     *      .            .            .
  5.152E-02 -7.831E+01 .            .     *      .            .            .
  5.176E-02 -7.823E+01 .            .     *      .            .            .
  5.200E-02 -7.815E+01 .            .     *      .            .            .
  5.224E-02 -7.807E+01 .            .     *      .            .            .
  5.248E-02 -7.799E+01 .            .     *      .            .            .
  5.272E-02 -7.791E+01 .            .     *      .            .            .
  5.297E-02 -7.783E+01 .            .     *      .            .            .
  5.321E-02 -7.775E+01 .            .     *      .            .            .
  5.346E-02 -7.767E+01 .            .     *      .            .            .
  5.370E-02 -7.759E+01 .            .     *      .            .            .
  5.395E-02 -7.751E+01 .            .     *      .            .            .
  5.420E-02 -7.743E+01 .            .     *      .            .            .
  5.445E-02 -7.735E+01 .            .     *      .            .            .
  5.470E-02 -7.727E+01 .            .     *      .            .            .
  5.495E-02 -7.719E+01 .            .     *      .            .            .
  5.521E-02 -7.711E+01 .            .     *      .            .            .
  5.546E-02 -7.703E+01 .            .     *      .            .            .
  5.572E-02 -7.695E+01 .            .     *      .            .            .
  5.598E-02 -7.687E+01 .            .     *      .            .            .
  5.623E-02 -7.679E+01 .            .     *      .            .            .
  5.649E-02 -7.671E+01 .            .     *      .            .            .
  5.675E-02 -7.663E+01 .            .     *      .            .            .
  5.702E-02 -7.655E+01 .            .     *      .            .            .
  5.728E-02 -7.647E+01 .            .     *      .            .            .
  5.754E-02 -7.639E+01 .            .     *      .            .            .
  5.781E-02 -7.631E+01 .            .     *      .            .            .
  5.808E-02 -7.623E+01 .            .     *      .            .            .
  5.834E-02 -7.615E+01 .            .     *      .            .            .
  5.861E-02 -7.607E+01 .            .     *      .            .            .
  5.888E-02 -7.599E+01 .            .     *      .            .            .
  5.916E-02 -7.591E+01 .            .     *      .            .            .
  5.943E-02 -7.583E+01 .            .     *      .            .            .
  5.970E-02 -7.575E+01 .            .     *      .            .            .
  5.998E-02 -7.567E+01 .            .     *      .            .            .
  6.026E-02 -7.559E+01 .            .     *      .            .            .
  6.053E-02 -7.551E+01 .            .     *      .            .            .
  6.081E-02 -7.543E+01 .            .     *      .            .            .
  6.109E-02 -7.535E+01 .            .     *      .            .            .
  6.138E-02 -7.527E+01 .            .     *      .            .            .
  6.166E-02 -7.519E+01 .            .     *      .            .            .
  6.194E-02 -7.511E+01 .            .     *      .            .            .
  6.223E-02 -7.503E+01 .            .     *      .            .            .
  6.252E-02 -7.495E+01 .            .      *     .            .            .
  6.281E-02 -7.487E+01 .            .      *     .            .            .
  6.310E-02 -7.479E+01 .            .      *     .            .            .
  6.339E-02 -7.471E+01 .            .      *     .            .            .
  6.368E-02 -7.463E+01 .            .      *     .            .            .
  6.397E-02 -7.455E+01 .            .      *     .            .            .
  6.427E-02 -7.447E+01 .            .      *     .            .            .
  6.457E-02 -7.439E+01 .            .      *     .            .            .
  6.486E-02 -7.431E+01 .            .      *     .            .            .
  6.516E-02 -7.423E+01 .            .      *     .            .            .
  6.546E-02 -7.415E+01 .            .      *     .            .            .
  6.577E-02 -7.407E+01 .            .      *     .            .            .
  6.607E-02 -7.399E+01 .            .      *     .            .            .
  6.637E-02 -7.391E+01 .            .      *     .            .            .
  6.668E-02 -7.383E+01 .            .      *     .            .            .
  6.699E-02 -7.375E+01 .            .      *     .            .            .
  6.730E-02 -7.367E+01 .            .      *     .            .            .
  6.761E-02 -7.359E+01 .            .      *     .            .            .
  6.792E-02 -7.351E+01 .            .      *     .            .            .
  6.823E-02 -7.343E+01 .            .      *     .            .            .
  6.855E-02 -7.335E+01 .            .      *     .            .            .
  6.887E-02 -7.327E+01 .            .      *     .            .            .
  6.918E-02 -7.319E+01 .            .      *     .            .            .
  6.950E-02 -7.311E+01 .            .      *     .            .            .
  6.982E-02 -7.303E+01 .            .      *     .            .            .
  7.015E-02 -7.295E+01 .            .      *     .            .            .
  7.047E-02 -7.288E+01 .            .      *     .            .            .
  7.079E-02 -7.280E+01 .            .      *     .            .            .
  7.112E-02 -7.272E+01 .            .      *     .            .            .
  7.145E-02 -7.264E+01 .            .      *     .            .            .
  7.178E-02 -7.256E+01 .            .      *     .            .            .
  7.211E-02 -7.248E+01 .            .      *     .            .            .
  7.244E-02 -7.240E+01 .            .      *     .            .            .
  7.278E-02 -7.232E+01 .            .      *     .            .            .
  7.311E-02 -7.224E+01 .            .      *     .            .            .
  7.345E-02 -7.216E+01 .            .      *     .            .            .
  7.379E-02 -7.208E+01 .            .      *     .            .            .
  7.413E-02 -7.200E+01 .            .      *     .            .            .
  7.447E-02 -7.192E+01 .            .      *     .            .            .
  7.482E-02 -7.184E+01 .            .      *     .            .            .
  7.516E-02 -7.176E+01 .            .      *     .            .            .
  7.551E-02 -7.168E+01 .            .      *     .            .            .
  7.586E-02 -7.160E+01 .            .      *     .            .            .
  7.621E-02 -7.152E+01 .            .      *     .            .            .
  7.656E-02 -7.144E+01 .            .      *     .            .            .
  7.691E-02 -7.136E+01 .            .      *     .            .            .
  7.727E-02 -7.128E+01 .            .      *     .            .            .
  7.762E-02 -7.120E+01 .            .      *     .            .            .
  7.798E-02 -7.112E+01 .            .       *    .            .            .
  7.834E-02 -7.104E+01 .            .       *    .            .            .
  7.870E-02 -7.096E+01 .            .       *    .            .            .
  7.907E-02 -7.088E+01 .            .       *    .            .            .
  7.943E-02 -7.080E+01 .            .       *    .            .            .
  7.980E-02 -7.072E+01 .            .       *    .            .            .
  8.017E-02 -7.064E+01 .            .       *    .            .            .
  8.054E-02 -7.056E+01 .            .       *    .            .            .
  8.091E-02 -7.048E+01 .            .       *    .            .            .
  8.128E-02 -7.040E+01 .            .       *    .            .            .
  8.166E-02 -7.032E+01 .            .       *    .            .            .
  8.204E-02 -7.024E+01 .            .       *    .            .            .
  8.241E-02 -7.016E+01 .            .       *    .            .            .
  8.279E-02 -7.008E+01 .            .       *    .            .            .
  8.318E-02 -7.000E+01 .            .       *    .            .            .
  8.356E-02 -6.992E+01 .            .       *    .            .            .
  8.395E-02 -6.984E+01 .            .       *    .            .            .
  8.433E-02 -6.976E+01 .            .       *    .            .            .
  8.472E-02 -6.968E+01 .            .       *    .            .            .
  8.511E-02 -6.960E+01 .            .       *    .            .            .
  8.551E-02 -6.952E+01 .            .       *    .            .            .
  8.590E-02 -6.944E+01 .            .       *    .            .            .
  8.630E-02 -6.937E+01 .            .       *    .            .            .
  8.670E-02 -6.929E+01 .            .       *    .            .            .
  8.710E-02 -6.921E+01 .            .       *    .            .            .
  8.750E-02 -6.913E+01 .            .       *    .            .            .
  8.790E-02 -6.905E+01 .            .       *    .            .            .
  8.831E-02 -6.897E+01 .            .       *    .            .            .
  8.872E-02 -6.889E+01 .            .       *    .            .            .
  8.913E-02 -6.881E+01 .            .       *    .            .            .
  8.954E-02 -6.873E+01 .            .       *    .            .            .
  8.995E-02 -6.865E+01 .            .       *    .            .            .
  9.037E-02 -6.857E+01 .            .       *    .            .            .
  9.078E-02 -6.849E+01 .            .       *    .            .            .
  9.120E-02 -6.841E+01 .            .       *    .            .            .
  9.162E-02 -6.833E+01 .            .       *    .            .            .
  9.205E-02 -6.825E+01 .            .       *    .            .            .
  9.247E-02 -6.817E+01 .            .       *    .            .            .
  9.290E-02 -6.809E+01 .            .       *    .            .            .
  9.333E-02 -6.801E+01 .            .       *    .            .            .
  9.376E-02 -6.793E+01 .            .       *    .            .            .
  9.419E-02 -6.785E+01 .            .       *    .            .            .
  9.462E-02 -6.777E+01 .            .       *    .            .            .
  9.506E-02 -6.769E+01 .            .       *    .            .            .
  9.550E-02 -6.761E+01 .            .       *    .            .            .
  9.594E-02 -6.753E+01 .            .       *    .            .            .
  9.638E-02 -6.745E+01 .            .       *    .            .            .
  9.683E-02 -6.737E+01 .            .       *    .            .            .
[...]
  3.105E+08 -2.150E+01 .            .            .      *     .            .
  3.119E+08 -2.156E+01 .            .            .      *     .            .
  3.133E+08 -2.162E+01 .            .            .      *     .            .
  3.148E+08 -2.168E+01 .            .            .      *     .            .
  3.162E+08 -2.175E+01 .            .            .      *     .            .
  3.177E+08 -2.181E+01 .            .            .      *     .            .
  3.192E+08 -2.187E+01 .            .            .      *     .            .
  3.206E+08 -2.193E+01 .            .            .      *     .            .
  3.221E+08 -2.199E+01 .            .            .      *     .            .
  3.236E+08 -2.205E+01 .            .            .      *     .            .
  3.251E+08 -2.211E+01 .            .            .      *     .            .
  3.266E+08 -2.218E+01 .            .            .      *     .            .
  3.281E+08 -2.224E+01 .            .            .      *     .            .
  3.296E+08 -2.230E+01 .            .            .      *     .            .
  3.311E+08 -2.236E+01 .            .            .      *     .            .
  3.327E+08 -2.242E+01 .            .            .      *     .            .
  3.342E+08 -2.249E+01 .            .            .      *     .            .
  3.357E+08 -2.255E+01 .            .            .      *     .            .
  3.373E+08 -2.261E+01 .            .            .      *     .            .
  3.388E+08 -2.267E+01 .            .            .      *     .            .
  3.404E+08 -2.274E+01 .            .            .      *     .            .
  3.420E+08 -2.280E+01 .            .            .      *     .            .
  3.436E+08 -2.286E+01 .            .            .      *     .            .
  3.451E+08 -2.292E+01 .            .            .      *     .            .
  3.467E+08 -2.299E+01 .            .            .      *     .            .
  3.483E+08 -2.305E+01 .            .            .      *     .            .
  3.499E+08 -2.311E+01 .            .            .      *     .            .
  3.516E+08 -2.318E+01 .            .            .      *     .            .
  3.532E+08 -2.324E+01 .            .            .      *     .            .
  3.548E+08 -2.330E+01 .            .            .      *     .            .
  3.565E+08 -2.337E+01 .            .            .      *     .            .
  3.581E+08 -2.343E+01 .            .            .      *     .            .
  3.597E+08 -2.350E+01 .            .            .      *     .            .
  3.614E+08 -2.356E+01 .            .            .      *     .            .
  3.631E+08 -2.362E+01 .            .            .      *     .            .
  3.648E+08 -2.369E+01 .            .            .      *     .            .
  3.664E+08 -2.375E+01 .            .            .      *     .            .
  3.681E+08 -2.382E+01 .            .            .      *     .            .
  3.698E+08 -2.388E+01 .            .            .      *     .            .
  3.715E+08 -2.394E+01 .            .            .      *     .            .
  3.733E+08 -2.401E+01 .            .            .      *     .            .
  3.750E+08 -2.407E+01 .            .            .      *     .            .
  3.767E+08 -2.414E+01 .            .            .      *     .            .
  3.784E+08 -2.420E+01 .            .            .      *     .            .
  3.802E+08 -2.427E+01 .            .            .      *     .            .
  3.819E+08 -2.433E+01 .            .            .      *     .            .
  3.837E+08 -2.440E+01 .            .            .      *     .            .
  3.855E+08 -2.446E+01 .            .            .      *     .            .
  3.873E+08 -2.453E+01 .            .            .      *     .            .
  3.890E+08 -2.459E+01 .            .            .      *     .            .
  3.908E+08 -2.466E+01 .            .            .      *     .            .
  3.926E+08 -2.472E+01 .            .            .      *     .            .
  3.945E+08 -2.479E+01 .            .            .      *     .            .
  3.963E+08 -2.485E+01 .            .            .      *     .            .
  3.981E+08 -2.492E+01 .            .            .      *     .            .
  3.999E+08 -2.499E+01 .            .            .      *     .            .
  4.018E+08 -2.505E+01 .            .            .     *      .            .
  4.036E+08 -2.512E+01 .            .            .     *      .            .
  4.055E+08 -2.518E+01 .            .            .     *      .            .
  4.074E+08 -2.525E+01 .            .            .     *      .            .
  4.093E+08 -2.532E+01 .            .            .     *      .            .
  4.112E+08 -2.538E+01 .            .            .     *      .            .
  4.130E+08 -2.545E+01 .            .            .     *      .            .
  4.150E+08 -2.552E+01 .            .            .     *      .            .
  4.169E+08 -2.558E+01 .            .            .     *      .            .
  4.188E+08 -2.565E+01 .            .            .     *      .            .
  4.207E+08 -2.572E+01 .            .            .     *      .            .
  4.227E+08 -2.578E+01 .            .            .     *      .            .
  4.246E+08 -2.585E+01 .            .            .     *      .            .
  4.266E+08 -2.592E+01 .            .            .     *      .            .
  4.285E+08 -2.598E+01 .            .            .     *      .            .
  4.305E+08 -2.605E+01 .            .            .     *      .            .
  4.325E+08 -2.612E+01 .            .            .     *      .            .
  4.345E+08 -2.618E+01 .            .            .     *      .            .
  4.365E+08 -2.625E+01 .            .            .     *      .            .
  4.385E+08 -2.632E+01 .            .            .     *      .            .
  4.406E+08 -2.639E+01 .            .            .     *      .            .
  4.426E+08 -2.645E+01 .            .            .     *      .            .
  4.446E+08 -2.652E+01 .            .            .     *      .            .
  4.467E+08 -2.659E+01 .            .            .     *      .            .
  4.487E+08 -2.666E+01 .            .            .     *      .            .
  4.508E+08 -2.673E+01 .            .            .     *      .            .
  4.529E+08 -2.679E+01 .            .            .     *      .            .
  4.550E+08 -2.686E+01 .            .            .     *      .            .
  4.571E+08 -2.693E+01 .            .            .     *      .            .
  4.592E+08 -2.700E+01 .            .            .     *      .            .
  4.613E+08 -2.707E+01 .            .            .     *      .            .
  4.634E+08 -2.713E+01 .            .            .     *      .            .
  4.656E+08 -2.720E+01 .            .            .     *      .            .
  4.677E+08 -2.727E+01 .            .            .     *      .            .
  4.699E+08 -2.734E+01 .            .            .     *      .            .
  4.721E+08 -2.741E+01 .            .            .     *      .            .
  4.742E+08 -2.748E+01 .            .            .     *      .            .
  4.764E+08 -2.755E+01 .            .            .     *      .            .
  4.786E+08 -2.762E+01 .            .            .     *      .            .
  4.808E+08 -2.768E+01 .            .            .     *      .            .
  4.831E+08 -2.775E+01 .            .            .     *      .            .
  4.853E+08 -2.782E+01 .            .            .     *      .            .
  4.875E+08 -2.789E+01 .            .            .     *      .            .
  4.898E+08 -2.796E+01 .            .            .     *      .            .
  4.920E+08 -2.803E+01 .            .            .     *      .            .
  4.943E+08 -2.810E+01 .            .            .     *      .            .
  4.966E+08 -2.817E+01 .            .            .     *      .            .
  4.989E+08 -2.824E+01 .            .            .     *      .            .
  5.012E+08 -2.831E+01 .            .            .     *      .            .
  5.035E+08 -2.838E+01 .            .            .     *      .            .
  5.058E+08 -2.845E+01 .            .            .     *      .            .
  5.082E+08 -2.852E+01 .            .            .     *      .            .
  5.105E+08 -2.859E+01 .            .            .     *      .            .
  5.129E+08 -2.866E+01 .            .            .     *      .            .
  5.152E+08 -2.873E+01 .            .            .     *      .            .
  5.176E+08 -2.880E+01 .            .            .     *      .            .
  5.200E+08 -2.887E+01 .            .            .    *       .            .
  5.224E+08 -2.894E+01 .            .            .    *       .            .
  5.248E+08 -2.901E+01 .            .            .    *       .            .
  5.272E+08 -2.908E+01 .            .            .    *       .            .
  5.297E+08 -2.915E+01 .            .            .    *       .            .
  5.321E+08 -2.922E+01 .            .            .    *       .            .
  5.346E+08 -2.929E+01 .            .            .    *       .            .
  5.370E+08 -2.936E+01 .            .            .    *       .            .
  5.395E+08 -2.943E+01 .            .            .    *       .            .
  5.420E+08 -2.950E+01 .            .            .    *       .            .
  5.445E+08 -2.957E+01 .            .            .    *       .            .
  5.470E+08 -2.964E+01 .            .            .    *       .            .
  5.495E+08 -2.972E+01 .            .            .    *       .            .
  5.521E+08 -2.979E+01 .            .            .    *       .            .
  5.546E+08 -2.986E+01 .            .            .    *       .            .
  5.572E+08 -2.993E+01 .            .            .    *       .            .
  5.598E+08 -3.000E+01 .            .            .    *       .            .
  5.623E+08 -3.007E+01 .            .            .    *       .            .
  5.649E+08 -3.014E+01 .            .            .    *       .            .
  5.675E+08 -3.021E+01 .            .            .    *       .            .
  5.702E+08 -3.029E+01 .            .            .    *       .            .
  5.728E+08 -3.036E+01 .            .            .    *       .            .
  5.754E+08 -3.043E+01 .            .            .    *       .            .
  5.781E+08 -3.050E+01 .            .            .    *       .            .
  5.808E+08 -3.057E+01 .            .            .    *       .            .
  5.834E+08 -3.064E+01 .            .            .    *       .            .
  5.861E+08 -3.072E+01 .            .            .    *       .            .
  5.888E+08 -3.079E+01 .            .            .    *       .            .
  5.916E+08 -3.086E+01 .            .            .    *       .            .
  5.943E+08 -3.093E+01 .            .            .    *       .            .
  5.970E+08 -3.100E+01 .            .            .    *       .            .
  5.998E+08 -3.108E+01 .            .            .    *       .            .
  6.026E+08 -3.115E+01 .            .            .    *       .            .
  6.053E+08 -3.122E+01 .            .            .    *       .            .
  6.081E+08 -3.129E+01 .            .            .    *       .            .
  6.109E+08 -3.137E+01 .            .            .    *       .            .
  6.138E+08 -3.144E+01 .            .            .    *       .            .
  6.166E+08 -3.151E+01 .            .            .    *       .            .
  6.194E+08 -3.158E+01 .            .            .    *       .            .
  6.223E+08 -3.166E+01 .            .            .    *       .            .
  6.252E+08 -3.173E+01 .            .            .    *       .            .
  6.281E+08 -3.180E+01 .            .            .    *       .            .
  6.310E+08 -3.187E+01 .            .            .    *       .            .
  6.339E+08 -3.195E+01 .            .            .    *       .            .
  6.368E+08 -3.202E+01 .            .            .    *       .            .
  6.397E+08 -3.209E+01 .            .            .    *       .            .
  6.427E+08 -3.216E+01 .            .            .    *       .            .
  6.457E+08 -3.224E+01 .            .            .    *       .            .
  6.486E+08 -3.231E+01 .            .            .    *       .            .
  6.516E+08 -3.238E+01 .            .            .    *       .            .
  6.546E+08 -3.246E+01 .            .            .    *       .            .
  6.577E+08 -3.253E+01 .            .            .    *       .            .
  6.607E+08 -3.260E+01 .            .            .    *       .            .
  6.637E+08 -3.268E+01 .            .            .    *       .            .
  6.668E+08 -3.275E+01 .            .            .   *        .            .
  6.699E+08 -3.282E+01 .            .            .   *        .            .
  6.730E+08 -3.290E+01 .            .            .   *        .            .
  6.761E+08 -3.297E+01 .            .            .   *        .            .
  6.792E+08 -3.304E+01 .            .            .   *        .            .
  6.823E+08 -3.312E+01 .            .            .   *        .            .
  6.855E+08 -3.319E+01 .            .            .   *        .            .
  6.887E+08 -3.326E+01 .            .            .   *        .            .
  6.918E+08 -3.334E+01 .            .            .   *        .            .
  6.950E+08 -3.341E+01 .            .            .   *        .            .
  6.982E+08 -3.349E+01 .            .            .   *        .            .
  7.015E+08 -3.356E+01 .            .            .   *        .            .
  7.047E+08 -3.363E+01 .            .            .   *        .            .
  7.079E+08 -3.371E+01 .            .            .   *        .            .
  7.112E+08 -3.378E+01 .            .            .   *        .            .
  7.145E+08 -3.386E+01 .            .            .   *        .            .
  7.178E+08 -3.393E+01 .            .            .   *        .            .
  7.211E+08 -3.400E+01 .            .            .   *        .            .
  7.244E+08 -3.408E+01 .            .            .   *        .            .
  7.278E+08 -3.415E+01 .            .            .   *        .            .
  7.311E+08 -3.423E+01 .            .            .   *        .            .
  7.345E+08 -3.430E+01 .            .            .   *        .            .
  7.379E+08 -3.438E+01 .            .            .   *        .            .
  7.413E+08 -3.445E+01 .            .            .   *        .            .
  7.447E+08 -3.452E+01 .            .            .   *        .            .
  7.482E+08 -3.460E+01 .            .            .   *        .            .
  7.516E+08 -3.467E+01 .            .            .   *        .            .
  7.551E+08 -3.475E+01 .            .            .   *        .            .
  7.586E+08 -3.482E+01 .            .            .   *        .            .
  7.621E+08 -3.490E+01 .            .            .   *        .            .
  7.656E+08 -3.497E+01 .            .            .   *        .            .
  7.691E+08 -3.505E+01 .            .            .   *        .            .
  7.727E+08 -3.512E+01 .            .            .   *        .            .
  7.762E+08 -3.520E+01 .            .            .   *        .            .
  7.798E+08 -3.527E+01 .            .            .   *        .            .
  7.834E+08 -3.535E+01 .            .            .   *        .            .
  7.870E+08 -3.542E+01 .            .            .   *        .            .
  7.907E+08 -3.550E+01 .            .            .   *        .            .
  7.943E+08 -3.557E+01 .            .            .   *        .            .
  7.980E+08 -3.565E+01 .            .            .   *        .            .
  8.017E+08 -3.572E+01 .            .            .   *        .            .
  8.054E+08 -3.580E+01 .            .            .   *        .            .
  8.091E+08 -3.587E+01 .            .            .   *        .            .
  8.128E+08 -3.595E+01 .            .            .   *        .            .
  8.166E+08 -3.602E+01 .            .            .   *        .            .
  8.204E+08 -3.610E+01 .            .            .   *        .            .
  8.241E+08 -3.617E+01 .            .            .   *        .            .
  8.279E+08 -3.625E+01 .            .            .   *        .            .
  8.318E+08 -3.632E+01 .            .            .   *        .            .
  8.356E+08 -3.640E+01 .            .            .   *        .            .
  8.395E+08 -3.647E+01 .            .            .   *        .            .
  8.433E+08 -3.655E+01 .            .            .  *         .            .
  8.472E+08 -3.662E+01 .            .            .  *         .            .
  8.511E+08 -3.670E+01 .            .            .  *         .            .
  8.551E+08 -3.678E+01 .            .            .  *         .            .
  8.590E+08 -3.685E+01 .            .            .  *         .            .
  8.630E+08 -3.693E+01 .            .            .  *         .            .
  8.670E+08 -3.700E+01 .            .            .  *         .            .
  8.710E+08 -3.708E+01 .            .            .  *         .            .
  8.750E+08 -3.715E+01 .            .            .  *         .            .
  8.790E+08 -3.723E+01 .            .            .  *         .            .
  8.831E+08 -3.730E+01 .            .            .  *         .            .
  8.872E+08 -3.738E+01 .            .            .  *         .            .
  8.913E+08 -3.746E+01 .            .            .  *         .            .
  8.954E+08 -3.753E+01 .            .            .  *         .            .
  8.995E+08 -3.761E+01 .            .            .  *         .            .
  9.037E+08 -3.768E+01 .            .            .  *         .            .
  9.078E+08 -3.776E+01 .            .            .  *         .            .
  9.120E+08 -3.784E+01 .            .            .  *         .            .
  9.162E+08 -3.791E+01 .            .            .  *         .            .
  9.205E+08 -3.799E+01 .            .            .  *         .            .
  9.247E+08 -3.806E+01 .            .            .  *         .            .
  9.290E+08 -3.814E+01 .            .            .  *         .            .
  9.333E+08 -3.822E+01 .            .            .  *         .            .
  9.376E+08 -3.829E+01 .            .            .  *         .            .
  9.419E+08 -3.837E+01 .            .            .  *         .            .
  9.462E+08 -3.845E+01 .            .            .  *         .            .
  9.506E+08 -3.852E+01 .            .            .  *         .            .
  9.550E+08 -3.860E+01 .            .            .  *         .            .
  9.594E+08 -3.867E+01 .            .            .  *         .            .
  9.638E+08 -3.875E+01 .            .            .  *         .            .
  9.683E+08 -3.883E+01 .            .            .  *         .            .
  9.727E+08 -3.890E+01 .            .            .  *         .            .
  9.772E+08 -3.898E+01 .            .            .  *         .            .
  9.817E+08 -3.906E+01 .            .            .  *         .            .
  9.863E+08 -3.913E+01 .            .            .  *         .            .
  9.908E+08 -3.921E+01 .            .            .  *         .            .
  9.954E+08 -3.928E+01 .            .            .  *         .            .
  1.000E+09 -3.936E+01 .            .            .  *         .            .
                       - - - - - - - - - - - - - - - - - - - - - - - - - - - 




          JOB CONCLUDED

**** 05/17/22 13:58:59 ******* PSpice Lite (March 2016) ******* ID# 10813 ****

  


 ****     JOB STATISTICS SUMMARY


******************************************************************************



  Total job time (using Solver 1)   =         .31
