
**** 04/15/21 15:35:10 ******* PSpice Lite (March 2016) ******* ID# 10813 ****

  


 ****     CIRCUIT DESCRIPTION


******************************************************************************



v1 2 0 dc 5
v2 3 0 dc -5
v3 5 0 dc -5
v4 4 0 dc 5
r1 6 0 100k
*vdd 1 0 dc 10

*r1 1 2 50k
*r2 2 3 20meg
*r3 3 0 20meg
vi 1 0 sin(0 5 100 0 0 0)
M1 1 2 6 3 e_mos L=5u W=50u
M2 1 5 6 4 t_mos L=5u W=50u
.model e_mos nmos (KP=20u Vto=2V lambda=0.02)
.model t_mos pmos (KP=20u Vto=2V lambda=0.02)
.tran 0.01m 40m 0 0.01m
.probe
.end

**** 04/15/21 15:35:10 ******* PSpice Lite (March 2016) ******* ID# 10813 ****

  


 ****     MOSFET MODEL PARAMETERS


******************************************************************************




               e_mos           t_mos           
               NMOS            PMOS            
       LEVEL    1               1            
           L  100.000000E-06  100.000000E-06 
           W  100.000000E-06  100.000000E-06 
         VTO    2               2            
          KP   20.000000E-06   20.000000E-06 
       GAMMA    0               0            
         PHI     .6              .6          
      LAMBDA     .02             .02         
          IS   10.000000E-15   10.000000E-15 
          JS    0               0            
          PB     .8              .8          
        PBSW     .8              .8          
          CJ    0               0            
        CJSW    0               0            
        CGSO    0               0            
        CGDO    0               0            
        CGBO    0               0            
         TOX    0               0            
          XJ    0               0            
       UCRIT   10.000000E+03   10.000000E+03 
      DIOMOD    1               1            
         VFB    0               0            
        LETA    0               0            
        WETA    0               0            
          U0    0               0            
        TEMP    0               0            
         VDD    5               5            
       XPART    0               0            


**** 04/15/21 15:35:10 ******* PSpice Lite (March 2016) ******* ID# 10813 ****

  


 ****     INITIAL TRANSIENT SOLUTION       TEMPERATURE =   27.000 DEG C


******************************************************************************



 NODE   VOLTAGE     NODE   VOLTAGE     NODE   VOLTAGE     NODE   VOLTAGE


(    1)    0.0000  (    2)    5.0000  (    3)   -5.0000  (    4)    5.0000      

(    5)   -5.0000  (    6)    0.0000  




    VOLTAGE SOURCE CURRENTS
    NAME         CURRENT

    v1           0.000E+00
    v2           1.002E-11
    v3           0.000E+00
    v4          -1.002E-11
    vi           0.000E+00

    TOTAL POWER DISSIPATION   1.00E-10  WATTS



          JOB CONCLUDED

**** 04/15/21 15:35:10 ******* PSpice Lite (March 2016) ******* ID# 10813 ****

  


 ****     JOB STATISTICS SUMMARY


******************************************************************************



  Total job time (using Solver 1)   =         .13

**** 04/15/21 15:35:11 ******* PSpice Lite (March 2016) ******* ID# 10813 ****

  


 ****     CIRCUIT DESCRIPTION


******************************************************************************



v1 2 0 dc 5
v2 3 0 dc -5
v3 5 0 dc -5
v4 4 0 dc 5
r1 6 0 10k
*vdd 1 0 dc 10

*r1 1 2 50k
*r2 2 3 20meg
*r3 3 0 20meg
vi 1 0 sin(0 5 100 0 0 0)
M1 1 2 6 3 e_mos L=5u W=50u
M2 1 5 6 4 t_mos L=5u W=50u
.model e_mos nmos (KP=20u Vto=2V lambda=0.02)
.model t_mos pmos (KP=20u Vto=2V lambda=0.02)
.tran 0.01m 40m 0 0.01m
.probe
.end

**** 04/15/21 15:35:11 ******* PSpice Lite (March 2016) ******* ID# 10813 ****

  


 ****     MOSFET MODEL PARAMETERS


******************************************************************************




               e_mos           t_mos           
               NMOS            PMOS            
       LEVEL    1               1            
           L  100.000000E-06  100.000000E-06 
           W  100.000000E-06  100.000000E-06 
         VTO    2               2            
          KP   20.000000E-06   20.000000E-06 
       GAMMA    0               0            
         PHI     .6              .6          
      LAMBDA     .02             .02         
          IS   10.000000E-15   10.000000E-15 
          JS    0               0            
          PB     .8              .8          
        PBSW     .8              .8          
          CJ    0               0            
        CJSW    0               0            
        CGSO    0               0            
        CGDO    0               0            
        CGBO    0               0            
         TOX    0               0            
          XJ    0               0            
       UCRIT   10.000000E+03   10.000000E+03 
      DIOMOD    1               1            
         VFB    0               0            
        LETA    0               0            
        WETA    0               0            
          U0    0               0            
        TEMP    0               0            
         VDD    5               5            
       XPART    0               0            


**** 04/15/21 15:35:11 ******* PSpice Lite (March 2016) ******* ID# 10813 ****

  


 ****     INITIAL TRANSIENT SOLUTION       TEMPERATURE =   27.000 DEG C


******************************************************************************



 NODE   VOLTAGE     NODE   VOLTAGE     NODE   VOLTAGE     NODE   VOLTAGE


(    1)    0.0000  (    2)    5.0000  (    3)   -5.0000  (    4)    5.0000      

(    5)   -5.0000  (    6)    0.0000  




    VOLTAGE SOURCE CURRENTS
    NAME         CURRENT

    v1           0.000E+00
    v2           1.002E-11
    v3           0.000E+00
    v4          -1.002E-11
    vi           0.000E+00

    TOTAL POWER DISSIPATION   1.00E-10  WATTS



          JOB CONCLUDED

**** 04/15/21 15:35:11 ******* PSpice Lite (March 2016) ******* ID# 10813 ****

  


 ****     JOB STATISTICS SUMMARY


******************************************************************************



  Total job time (using Solver 1)   =         .14

**** 04/15/21 15:35:11 ******* PSpice Lite (March 2016) ******* ID# 10813 ****

  


 ****     CIRCUIT DESCRIPTION


******************************************************************************



v1 2 0 dc 5
v2 3 0 dc -5
v3 5 0 dc -5
v4 4 0 dc 5
r1 6 0 1k
*vdd 1 0 dc 10

*r1 1 2 50k
*r2 2 3 20meg
*r3 3 0 20meg
vi 1 0 sin(0 5 100 0 0 0)
M1 1 2 6 3 e_mos L=5u W=50u
M2 1 5 6 4 t_mos L=5u W=50u
.model e_mos nmos (KP=20u Vto=2V lambda=0.02)
.model t_mos pmos (KP=20u Vto=2V lambda=0.02)
.tran 0.01m 40m 0 0.01m
.probe
.end

**** 04/15/21 15:35:11 ******* PSpice Lite (March 2016) ******* ID# 10813 ****

  


 ****     MOSFET MODEL PARAMETERS


******************************************************************************




               e_mos           t_mos           
               NMOS            PMOS            
       LEVEL    1               1            
           L  100.000000E-06  100.000000E-06 
           W  100.000000E-06  100.000000E-06 
         VTO    2               2            
          KP   20.000000E-06   20.000000E-06 
       GAMMA    0               0            
         PHI     .6              .6          
      LAMBDA     .02             .02         
          IS   10.000000E-15   10.000000E-15 
          JS    0               0            
          PB     .8              .8          
        PBSW     .8              .8          
          CJ    0               0            
        CJSW    0               0            
        CGSO    0               0            
        CGDO    0               0            
        CGBO    0               0            
         TOX    0               0            
          XJ    0               0            
       UCRIT   10.000000E+03   10.000000E+03 
      DIOMOD    1               1            
         VFB    0               0            
        LETA    0               0            
        WETA    0               0            
          U0    0               0            
        TEMP    0               0            
         VDD    5               5            
       XPART    0               0            


**** 04/15/21 15:35:11 ******* PSpice Lite (March 2016) ******* ID# 10813 ****

  


 ****     INITIAL TRANSIENT SOLUTION       TEMPERATURE =   27.000 DEG C


******************************************************************************



 NODE   VOLTAGE     NODE   VOLTAGE     NODE   VOLTAGE     NODE   VOLTAGE


(    1)    0.0000  (    2)    5.0000  (    3)   -5.0000  (    4)    5.0000      

(    5)   -5.0000  (    6)    0.0000  




    VOLTAGE SOURCE CURRENTS
    NAME         CURRENT

    v1           0.000E+00
    v2           1.002E-11
    v3           0.000E+00
    v4          -1.002E-11
    vi           0.000E+00

    TOTAL POWER DISSIPATION   1.00E-10  WATTS



          JOB CONCLUDED

**** 04/15/21 15:35:11 ******* PSpice Lite (March 2016) ******* ID# 10813 ****

  


 ****     JOB STATISTICS SUMMARY


******************************************************************************



  Total job time (using Solver 1)   =         .11
