
**** 03/17/21 18:51:10 ******* PSpice Lite (March 2016) ******* ID# 10813 ****

 *circuit description


 ****     CIRCUIT DESCRIPTION


******************************************************************************



Vi 1 0 sin(0V 1OV 60HZ)
VR1 4 0 DC 5V
VR2 6 0 DC -5V
R1 1 2 10k
R2 2 3 10k
R3 2 5 10k
*diode model descriotion
D1 3 4 1mA_diode
D2 6 5 1mA_diode
.mode1 1mA_diode D (Is=0.01pA n=1.0675)
$
ERROR(ORPSIM-16056): Unrecognizable command
*analysis requests
.TRAN 0.01ms 40ms 0ms 0.01ms
.probe
.end
