
**** 03/17/21 23:02:15 ******* PSpice Lite (March 2016) ******* ID# 10813 ****

  


 ****     CIRCUIT DESCRIPTION


******************************************************************************



v1 2 0 dc -5
v2 3 0 dc 5
*vdd 1 0 dc 10

*r1 1 2 50k
*r2 2 3 20meg
*r3 3 0 20meg
vi 1 0 dc 0
M1 1 2 0 3 e_mos L=5u W=50u

.model e_mos pmos (KP=20u Vto=2V lambda=0.02)
.dc vi -5 5 0.01
.op

.probe
.end

**** 03/17/21 23:02:15 ******* PSpice Lite (March 2016) ******* ID# 10813 ****

  


 ****     MOSFET MODEL PARAMETERS


******************************************************************************




               e_mos           
               PMOS            
       LEVEL    1            
           L  100.000000E-06 
           W  100.000000E-06 
         VTO    2            
          KP   20.000000E-06 
       GAMMA    0            
         PHI     .6          
      LAMBDA     .02         
          IS   10.000000E-15 
          JS    0            
          PB     .8          
        PBSW     .8          
          CJ    0            
        CJSW    0            
        CGSO    0            
        CGDO    0            
        CGBO    0            
         TOX    0            
          XJ    0            
       UCRIT   10.000000E+03 
      DIOMOD    1            
         VFB    0            
        LETA    0            
        WETA    0            
          U0    0            
        TEMP    0            
         VDD    5            
       XPART    0            


**** 03/17/21 23:02:15 ******* PSpice Lite (March 2016) ******* ID# 10813 ****

  


 ****     SMALL SIGNAL BIAS SOLUTION       TEMPERATURE =   27.000 DEG C


******************************************************************************



 NODE   VOLTAGE     NODE   VOLTAGE     NODE   VOLTAGE     NODE   VOLTAGE


(    1)    0.0000  (    2)   -5.0000  (    3)    5.0000  




    VOLTAGE SOURCE CURRENTS
    NAME         CURRENT

    v1           0.000E+00
    v2          -1.002E-11
    vi           5.010E-12

    TOTAL POWER DISSIPATION   5.01E-11  WATTS


**** 03/17/21 23:02:15 ******* PSpice Lite (March 2016) ******* ID# 10813 ****

  


 ****     OPERATING POINT INFORMATION      TEMPERATURE =   27.000 DEG C


******************************************************************************






**** MOSFETS


NAME         M1        
MODEL        e_mos     
ID          -5.01E-12 
VGS         -5.00E+00 
VDS          0.00E+00 
VBS          5.00E+00 
VTH          2.00E+00 
VDSAT       -7.00E+00 
Lin0/Sat1   -1.00E+00 
if          -1.00E+00 
ir          -1.00E+00 
TAU         -1.00E+00 
GM           0.00E+00 
GDS          1.40E-03 
GMB          0.00E+00 
CBD          0.00E+00 
CBS          0.00E+00 
CGSOV        0.00E+00 
CGDOV        0.00E+00 
CGBOV        0.00E+00 
CGS          0.00E+00 
CGD          0.00E+00 
CGB          0.00E+00 

          JOB CONCLUDED

**** 03/17/21 23:02:15 ******* PSpice Lite (March 2016) ******* ID# 10813 ****

  


 ****     JOB STATISTICS SUMMARY


******************************************************************************



  Total job time (using Solver 1)   =         .08
