
**** 04/15/21 15:34:35 ******* PSpice Lite (March 2016) ******* ID# 10813 ****

  


 ****     CIRCUIT DESCRIPTION


******************************************************************************



v1 2 0 dc 5
v2 3 0 dc -5
r1 4 0 100k
*vdd 1 0 dc 10

*r1 1 2 50k
*r2 2 3 20meg
*r3 3 0 20meg
vi 1 0 sin(0 5 100 0 0)
M1 1 2 4 3 e_mos L=5u W=50u

.model e_mos nmos (KP=20u Vto=2V lambda=0.02)
.tran 0.01m 40m 0 0.01m
.probe
.end

**** 04/15/21 15:34:35 ******* PSpice Lite (March 2016) ******* ID# 10813 ****

  


 ****     MOSFET MODEL PARAMETERS


******************************************************************************




               e_mos           
               NMOS            
       LEVEL    1            
           L  100.000000E-06 
           W  100.000000E-06 
         VTO    2            
          KP   20.000000E-06 
       GAMMA    0            
         PHI     .6          
      LAMBDA     .02         
          IS   10.000000E-15 
          JS    0            
          PB     .8          
        PBSW     .8          
          CJ    0            
        CJSW    0            
        CGSO    0            
        CGDO    0            
        CGBO    0            
         TOX    0            
          XJ    0            
       UCRIT   10.000000E+03 
      DIOMOD    1            
         VFB    0            
        LETA    0            
        WETA    0            
          U0    0            
        TEMP    0            
         VDD    5            
       XPART    0            


**** 04/15/21 15:34:35 ******* PSpice Lite (March 2016) ******* ID# 10813 ****

  


 ****     INITIAL TRANSIENT SOLUTION       TEMPERATURE =   27.000 DEG C


******************************************************************************



 NODE   VOLTAGE     NODE   VOLTAGE     NODE   VOLTAGE     NODE   VOLTAGE


(    1)    0.0000  (    2)    5.0000  (    3)   -5.0000  (    4)-8.213E-09  




    VOLTAGE SOURCE CURRENTS
    NAME         CURRENT

    v1           0.000E+00
    v2           1.002E-11
    vi          -9.938E-12

    TOTAL POWER DISSIPATION   5.01E-11  WATTS



          JOB CONCLUDED

**** 04/15/21 15:34:35 ******* PSpice Lite (March 2016) ******* ID# 10813 ****

  


 ****     JOB STATISTICS SUMMARY


******************************************************************************



  Total job time (using Solver 1)   =         .16
