
**** 03/26/21 17:36:57 ******* PSpice Lite (March 2016) ******* ID# 10813 ****

  


 ****     CIRCUIT DESCRIPTION


******************************************************************************




*rd 3 4 4k
*rd 3 4 6k
*vdd 3 0 dc 15

*r1 1 2 50k
*r2 2 3 20meg
*r3 3 0 20meg
*vi 2 1 dc 0
vgs 1 0 dc 6
vds 2 0 dc 0
M1 2 1 0 0 e_mos L=5u W=50u

.model e_mos nmos (Kp=20u Vto=2V lambda=0.02)

.dc vds 0 15 0.01
.probe
.end

**** 03/26/21 17:36:57 ******* PSpice Lite (March 2016) ******* ID# 10813 ****

  


 ****     MOSFET MODEL PARAMETERS


******************************************************************************




               e_mos           
               NMOS            
       LEVEL    1            
           L  100.000000E-06 
           W  100.000000E-06 
         VTO    2            
          KP   20.000000E-06 
       GAMMA    0            
         PHI     .6          
      LAMBDA     .02         
          IS   10.000000E-15 
          JS    0            
          PB     .8          
        PBSW     .8          
          CJ    0            
        CJSW    0            
        CGSO    0            
        CGDO    0            
        CGBO    0            
         TOX    0            
          XJ    0            
       UCRIT   10.000000E+03 
      DIOMOD    1            
         VFB    0            
        LETA    0            
        WETA    0            
          U0    0            
        TEMP    0            
         VDD    5            
       XPART    0            



          JOB CONCLUDED

**** 03/26/21 17:36:57 ******* PSpice Lite (March 2016) ******* ID# 10813 ****

  


 ****     JOB STATISTICS SUMMARY


******************************************************************************



  Total job time (using Solver 1)   =         .05
