
**** 03/25/21 20:10:51 ******* PSpice Lite (March 2016) ******* ID# 10813 ****

  


 ****     CIRCUIT DESCRIPTION


******************************************************************************



r1 1 2 11.81272234k
*i1 1 2 dc 1m
vdd 1 0 dc 15
vo 3 0 dc 3
M1 2 2 0 0 e_mos L=5u W=50u
M2 3 2 0 0 e_mos L=5u W=50u
.model e_mos nmos (KP=20u Vto=2V lambda=0.02)

.dc vo 0 15 0.01
.probe
.end

**** 03/25/21 20:10:51 ******* PSpice Lite (March 2016) ******* ID# 10813 ****

  


 ****     MOSFET MODEL PARAMETERS


******************************************************************************




               e_mos           
               NMOS            
       LEVEL    1            
           L  100.000000E-06 
           W  100.000000E-06 
         VTO    2            
          KP   20.000000E-06 
       GAMMA    0            
         PHI     .6          
      LAMBDA     .02         
          IS   10.000000E-15 
          JS    0            
          PB     .8          
        PBSW     .8          
          CJ    0            
        CJSW    0            
        CGSO    0            
        CGDO    0            
        CGBO    0            
         TOX    0            
          XJ    0            
       UCRIT   10.000000E+03 
      DIOMOD    1            
         VFB    0            
        LETA    0            
        WETA    0            
          U0    0            
        TEMP    0            
         VDD    5            
       XPART    0            



          JOB CONCLUDED

**** 03/25/21 20:10:51 ******* PSpice Lite (March 2016) ******* ID# 10813 ****

  


 ****     JOB STATISTICS SUMMARY


******************************************************************************



  Total job time (using Solver 1)   =         .08

**** 03/25/21 20:10:51 ******* PSpice Lite (March 2016) ******* ID# 10813 ****

  


 ****     CIRCUIT DESCRIPTION


******************************************************************************



