
**** 03/23/21 21:34:10 ******* PSpice Lite (March 2016) ******* ID# 10813 ****

  


 ****     CIRCUIT DESCRIPTION


******************************************************************************




*rd 3 4 4k
*rd 3 4 6k
*vdd 3 0 dc 15

*r1 1 2 50k
*r2 2 3 20meg
*r3 3 0 20meg
*vi 2 1 dc 0
vgs 1 0 dc 6
vds 2 0 dc 0
M1 2 1 0 0 e_mos L=5u W=50u

.model e_mos nmos (Kn=20u Vto=2V lambda=0.02)
-------------------$
ERROR -- 'Kn' is not a model parameter name

.dc vds 0 15 0.01
.probe
.end
