
**** 04/12/22 13:22:49 ******* PSpice Lite (March 2016) ******* ID# 10813 ****

  


 ****     CIRCUIT DESCRIPTION


******************************************************************************



vdd 1 0 dc 8v
r1 1 2 7293
m1 2 2 0 0 aaa 
m2 4 2 0 0 aaa 
.model aaa nmos(kp=4m vto=2v l=1u w=1u lambda=0.02)
vo 4 0 dc 3v
.op
.probe
.end

**** 04/12/22 13:22:49 ******* PSpice Lite (March 2016) ******* ID# 10813 ****

  


 ****     MOSFET MODEL PARAMETERS


******************************************************************************




               aaa             
               NMOS            
       LEVEL    1            
           L    1.000000E-06 
           W    1.000000E-06 
         VTO    2            
          KP    4.000000E-03 
       GAMMA    0            
         PHI     .6          
      LAMBDA     .02         
          IS   10.000000E-15 
          JS    0            
          PB     .8          
        PBSW     .8          
          CJ    0            
        CJSW    0            
        CGSO    0            
        CGDO    0            
        CGBO    0            
         TOX    0            
          XJ    0            
       UCRIT   10.000000E+03 
      DIOMOD    1            
         VFB    0            
        LETA    0            
        WETA    0            
          U0    0            
        TEMP    0            
         VDD    5            
       XPART    0            


**** 04/12/22 13:22:49 ******* PSpice Lite (March 2016) ******* ID# 10813 ****

  


 ****     SMALL SIGNAL BIAS SOLUTION       TEMPERATURE =   27.000 DEG C


******************************************************************************



 NODE   VOLTAGE     NODE   VOLTAGE     NODE   VOLTAGE     NODE   VOLTAGE


(    1)    8.0000  (    2)    2.5936  (    4)    3.0000  




    VOLTAGE SOURCE CURRENTS
    NAME         CURRENT

    vdd         -7.413E-04
    vo          -7.470E-04

    TOTAL POWER DISSIPATION   8.17E-03  WATTS


**** 04/12/22 13:22:49 ******* PSpice Lite (March 2016) ******* ID# 10813 ****

  


 ****     OPERATING POINT INFORMATION      TEMPERATURE =   27.000 DEG C


******************************************************************************






**** MOSFETS


NAME         m1          m2        
MODEL        aaa         aaa       
ID           7.41E-04    7.47E-04 
VGS          2.59E+00    2.59E+00 
VDS          2.59E+00    3.00E+00 
VBS          0.00E+00    0.00E+00 
VTH          2.00E+00    2.00E+00 
VDSAT        5.94E-01    5.94E-01 
Lin0/Sat1   -1.00E+00   -1.00E+00 
if          -1.00E+00   -1.00E+00 
ir          -1.00E+00   -1.00E+00 
TAU         -1.00E+00   -1.00E+00 
GM           2.50E-03    2.52E-03 
GDS          1.41E-05    1.41E-05 
GMB          0.00E+00    0.00E+00 
CBD          0.00E+00    0.00E+00 
CBS          0.00E+00    0.00E+00 
CGSOV        0.00E+00    0.00E+00 
CGDOV        0.00E+00    0.00E+00 
CGBOV        0.00E+00    0.00E+00 
CGS          0.00E+00    0.00E+00 
CGD          0.00E+00    0.00E+00 
CGB          0.00E+00    0.00E+00 

          JOB CONCLUDED

**** 04/12/22 13:22:49 ******* PSpice Lite (March 2016) ******* ID# 10813 ****

  


 ****     JOB STATISTICS SUMMARY


******************************************************************************



  Total job time (using Solver 1)   =         .03
