
**** 04/15/21 13:01:48 ******* PSpice Lite (March 2016) ******* ID# 10813 ****

  


 ****     CIRCUIT DESCRIPTION


******************************************************************************



r1 1 2 11.81272234k
*i1 1 2 dc 1m
vdd 1 0 dc 15
vo 3 0 dc 15
M1 2 2 0 0 e_mos L=10u W=100u
M2 3 2 0 0 e_mos L=10u W=100u
.model e_mos nmos (KP=20u Vto=1V lambda=0.02)

.dc vo 0 15 0.01
.op
.probe
.end

**** 04/15/21 13:01:48 ******* PSpice Lite (March 2016) ******* ID# 10813 ****

  


 ****     MOSFET MODEL PARAMETERS


******************************************************************************




               e_mos           
               NMOS            
       LEVEL    1            
           L  100.000000E-06 
           W  100.000000E-06 
         VTO    1            
          KP   20.000000E-06 
       GAMMA    0            
         PHI     .6          
      LAMBDA     .02         
          IS   10.000000E-15 
          JS    0            
          PB     .8          
        PBSW     .8          
          CJ    0            
        CJSW    0            
        CGSO    0            
        CGDO    0            
        CGBO    0            
         TOX    0            
          XJ    0            
       UCRIT   10.000000E+03 
      DIOMOD    1            
         VFB    0            
        LETA    0            
        WETA    0            
          U0    0            
        TEMP    0            
         VDD    5            
       XPART    0            


**** 04/15/21 13:01:48 ******* PSpice Lite (March 2016) ******* ID# 10813 ****

  


 ****     SMALL SIGNAL BIAS SOLUTION       TEMPERATURE =   27.000 DEG C


******************************************************************************



 NODE   VOLTAGE     NODE   VOLTAGE     NODE   VOLTAGE     NODE   VOLTAGE


(    1)   15.0000  (    2)    3.9452  (    3)   15.0000  




    VOLTAGE SOURCE CURRENTS
    NAME         CURRENT

    vdd         -9.358E-04
    vo          -1.128E-03

    TOTAL POWER DISSIPATION   3.10E-02  WATTS


**** 04/15/21 13:01:48 ******* PSpice Lite (March 2016) ******* ID# 10813 ****

  


 ****     OPERATING POINT INFORMATION      TEMPERATURE =   27.000 DEG C


******************************************************************************






**** MOSFETS


NAME         M1          M2        
MODEL        e_mos       e_mos     
ID           9.36E-04    1.13E-03 
VGS          3.95E+00    3.95E+00 
VDS          3.95E+00    1.50E+01 
VBS          0.00E+00    0.00E+00 
VTH          1.00E+00    1.00E+00 
VDSAT        2.95E+00    2.95E+00 
Lin0/Sat1   -1.00E+00   -1.00E+00 
if          -1.00E+00   -1.00E+00 
ir          -1.00E+00   -1.00E+00 
TAU         -1.00E+00   -1.00E+00 
GM           6.36E-04    7.66E-04 
GDS          1.73E-05    1.73E-05 
GMB          0.00E+00    0.00E+00 
CBD          0.00E+00    0.00E+00 
CBS          0.00E+00    0.00E+00 
CGSOV        0.00E+00    0.00E+00 
CGDOV        0.00E+00    0.00E+00 
CGBOV        0.00E+00    0.00E+00 
CGS          0.00E+00    0.00E+00 
CGD          0.00E+00    0.00E+00 
CGB          0.00E+00    0.00E+00 

          JOB CONCLUDED

**** 04/15/21 13:01:48 ******* PSpice Lite (March 2016) ******* ID# 10813 ****

  


 ****     JOB STATISTICS SUMMARY


******************************************************************************



  Total job time (using Solver 1)   =         .13
