
**** 04/08/21 14:26:07 ******* PSpice Lite (March 2016) ******* ID# 10813 ****

 * circuit description *


 ****     CIRCUIT DESCRIPTION


******************************************************************************



Vcc 1 0 DC 15
Vo 3 0 DC 5
RE 4 0 5k
is 1 2 dc 0.73m
*BJT model description
Q1 2 2 0 0 npn_transistor
Q2 3 2 4 0 npn_transistor

.model npn_transistor npn (Is=1.8E-15 BF=100 VAF=100)
*analysis requests
.DC Vo 0 15 0.01
*output requests
.op
.plot DC I(Vo)
.probe
.end

**** 04/08/21 14:26:07 ******* PSpice Lite (March 2016) ******* ID# 10813 ****

 * circuit description *


 ****     BJT MODEL PARAMETERS


******************************************************************************




               npn_transistor  
               NPN             
       LEVEL    1            
          IS    1.800000E-15 
          BF  100            
          NF    1            
         VAF  100            
          BR    1            
          NR    1            
         ISS    0            
          RE    0            
          RC    0            
         CJE    0            
         VJE     .75         
         CJC    0            
         VJC     .75         
         MJC     .33         
        XCJC    1            
         CJS    0            
         VJS     .75         
          KF    0            
          AF    1            
          CN    2.42         
           D     .87         


**** 04/08/21 14:26:07 ******* PSpice Lite (March 2016) ******* ID# 10813 ****

 * circuit description *


 ****     DC TRANSFER CURVES               TEMPERATURE =   27.000 DEG C


******************************************************************************



  Vo          I(Vo)       
(*)----------   -2.0000E-04   0.0000E+00   2.0000E-04   4.0000E-04   6.0000E-04
                       _ _ _ _ _ _ _ _ _ _ _ _ _ _ _ _ _ _ _ _ _ _ _ _ _ _ _
  0.000E+00  3.649E-04 .            .            .          * .            .
  1.000E-02  2.933E-04 .            .            .     *      .            .
  2.000E-02  2.266E-04 .            .            . *          .            .
  3.000E-02  1.684E-04 .            .          * .            .            .
  4.000E-02  1.205E-04 .            .       *    .            .            .
  5.000E-02  8.281E-05 .            .    *       .            .            .
  6.000E-02  5.421E-05 .            .   *        .            .            .
  7.000E-02  3.305E-05 .            . *          .            .            .
  8.000E-02  1.769E-05 .            .*           .            .            .
  9.000E-02  6.696E-06 .            *            .            .            .
  1.000E-01 -1.087E-06 .            *            .            .            .
  1.100E-01 -6.546E-06 .            *            .            .            .
  1.200E-01 -1.035E-05 .           *.            .            .            .
  1.300E-01 -1.298E-05 .           *.            .            .            .
  1.400E-01 -1.479E-05 .           *.            .            .            .
  1.500E-01 -1.603E-05 .           *.            .            .            .
  1.600E-01 -1.688E-05 .           *.            .            .            .
  1.700E-01 -1.746E-05 .           *.            .            .            .
  1.800E-01 -1.785E-05 .           *.            .            .            .
  1.900E-01 -1.812E-05 .           *.            .            .            .
  2.000E-01 -1.830E-05 .           *.            .            .            .
  2.100E-01 -1.843E-05 .           *.            .            .            .
  2.200E-01 -1.851E-05 .           *.            .            .            .
  2.300E-01 -1.857E-05 .           *.            .            .            .
  2.400E-01 -1.861E-05 .           *.            .            .            .
  2.500E-01 -1.864E-05 .           *.            .            .            .
  2.600E-01 -1.866E-05 .           *.            .            .            .
  2.700E-01 -1.867E-05 .           *.            .            .            .
  2.800E-01 -1.868E-05 .           *.            .            .            .
  2.900E-01 -1.868E-05 .           *.            .            .            .
  3.000E-01 -1.869E-05 .           *.            .            .            .
  3.100E-01 -1.869E-05 .           *.            .            .            .
  3.200E-01 -1.869E-05 .           *.            .            .            .
  3.300E-01 -1.870E-05 .           *.            .            .            .
  3.400E-01 -1.870E-05 .           *.            .            .            .
  3.500E-01 -1.870E-05 .           *.            .            .            .
  3.600E-01 -1.870E-05 .           *.            .            .            .
  3.700E-01 -1.870E-05 .           *.            .            .            .
  3.800E-01 -1.870E-05 .           *.            .            .            .
  3.900E-01 -1.870E-05 .           *.            .            .            .
  4.000E-01 -1.870E-05 .           *.            .            .            .
  4.100E-01 -1.870E-05 .           *.            .            .            .
  4.200E-01 -1.870E-05 .           *.            .            .            .
  4.300E-01 -1.870E-05 .           *.            .            .            .
  4.400E-01 -1.870E-05 .           *.            .            .            .
  4.500E-01 -1.870E-05 .           *.            .            .            .
  4.600E-01 -1.870E-05 .           *.            .            .            .
  4.700E-01 -1.870E-05 .           *.            .            .            .
  4.800E-01 -1.870E-05 .           *.            .            .            .
  4.900E-01 -1.870E-05 .           *.            .            .            .
  5.000E-01 -1.870E-05 .           *.            .            .            .
  5.100E-01 -1.871E-05 .           *.            .            .            .
  5.200E-01 -1.871E-05 .           *.            .            .            .
  5.300E-01 -1.871E-05 .           *.            .            .            .
  5.400E-01 -1.871E-05 .           *.            .            .            .
  5.500E-01 -1.871E-05 .           *.            .            .            .
  5.600E-01 -1.871E-05 .           *.            .            .            .
  5.700E-01 -1.871E-05 .           *.            .            .            .
  5.800E-01 -1.871E-05 .           *.            .            .            .
  5.900E-01 -1.871E-05 .           *.            .            .            .
  6.000E-01 -1.871E-05 .           *.            .            .            .
  6.100E-01 -1.871E-05 .           *.            .            .            .
  6.200E-01 -1.871E-05 .           *.            .            .            .
  6.300E-01 -1.871E-05 .           *.            .            .            .
  6.400E-01 -1.871E-05 .           *.            .            .            .
  6.500E-01 -1.871E-05 .           *.            .            .            .
  6.600E-01 -1.871E-05 .           *.            .            .            .
  6.700E-01 -1.871E-05 .           *.            .            .            .
  6.800E-01 -1.871E-05 .           *.            .            .            .
  6.900E-01 -1.871E-05 .           *.            .            .            .
  7.000E-01 -1.871E-05 .           *.            .            .            .
  7.100E-01 -1.871E-05 .           *.            .            .            .
  7.200E-01 -1.871E-05 .           *.            .            .            .
  7.300E-01 -1.871E-05 .           *.            .            .            .
  7.400E-01 -1.871E-05 .           *.            .            .            .
  7.500E-01 -1.872E-05 .           *.            .            .            .
  7.600E-01 -1.872E-05 .           *.            .            .            .
  7.700E-01 -1.872E-05 .           *.            .            .            .
  7.800E-01 -1.872E-05 .           *.            .            .            .
  7.900E-01 -1.872E-05 .           *.            .            .            .
  8.000E-01 -1.872E-05 .           *.            .            .            .
  8.100E-01 -1.872E-05 .           *.            .            .            .
  8.200E-01 -1.872E-05 .           *.            .            .            .
  8.300E-01 -1.872E-05 .           *.            .            .            .
  8.400E-01 -1.872E-05 .           *.            .            .            .
  8.500E-01 -1.872E-05 .           *.            .            .            .
  8.600E-01 -1.872E-05 .           *.            .            .            .
  8.700E-01 -1.872E-05 .           *.            .            .            .
  8.800E-01 -1.872E-05 .           *.            .            .            .
  8.900E-01 -1.872E-05 .           *.            .            .            .
  9.000E-01 -1.872E-05 .           *.            .            .            .
  9.100E-01 -1.872E-05 .           *.            .            .            .
  9.200E-01 -1.872E-05 .           *.            .            .            .
  9.300E-01 -1.872E-05 .           *.            .            .            .
  9.400E-01 -1.872E-05 .           *.            .            .            .
  9.500E-01 -1.872E-05 .           *.            .            .            .
  9.600E-01 -1.872E-05 .           *.            .            .            .
  9.700E-01 -1.872E-05 .           *.            .            .            .
  9.800E-01 -1.872E-05 .           *.            .            .            .
  9.900E-01 -1.873E-05 .           *.            .            .            .
  1.000E+00 -1.873E-05 .           *.            .            .            .
  1.010E+00 -1.873E-05 .           *.            .            .            .
  1.020E+00 -1.873E-05 .           *.            .            .            .
  1.030E+00 -1.873E-05 .           *.            .            .            .
  1.040E+00 -1.873E-05 .           *.            .            .            .
  1.050E+00 -1.873E-05 .           *.            .            .            .
  1.060E+00 -1.873E-05 .           *.            .            .            .
  1.070E+00 -1.873E-05 .           *.            .            .            .
  1.080E+00 -1.873E-05 .           *.            .            .            .
  1.090E+00 -1.873E-05 .           *.            .            .            .
  1.100E+00 -1.873E-05 .           *.            .            .            .
  1.110E+00 -1.873E-05 .           *.            .            .            .
  1.120E+00 -1.873E-05 .           *.            .            .            .
  1.130E+00 -1.873E-05 .           *.            .            .            .
  1.140E+00 -1.873E-05 .           *.            .            .            .
  1.150E+00 -1.873E-05 .           *.            .            .            .
  1.160E+00 -1.873E-05 .           *.            .            .            .
  1.170E+00 -1.873E-05 .           *.            .            .            .
  1.180E+00 -1.873E-05 .           *.            .            .            .
  1.190E+00 -1.873E-05 .           *.            .            .            .
  1.200E+00 -1.873E-05 .           *.            .            .            .
  1.210E+00 -1.873E-05 .           *.            .            .            .
  1.220E+00 -1.873E-05 .           *.            .            .            .
  1.230E+00 -1.874E-05 .           *.            .            .            .
  1.240E+00 -1.874E-05 .           *.            .            .            .
  1.250E+00 -1.874E-05 .           *.            .            .            .
  1.260E+00 -1.874E-05 .           *.            .            .            .
  1.270E+00 -1.874E-05 .           *.            .            .            .
  1.280E+00 -1.874E-05 .           *.            .            .            .
  1.290E+00 -1.874E-05 .           *.            .            .            .
  1.300E+00 -1.874E-05 .           *.            .            .            .
  1.310E+00 -1.874E-05 .           *.            .            .            .
  1.320E+00 -1.874E-05 .           *.            .            .            .
  1.330E+00 -1.874E-05 .           *.            .            .            .
  1.340E+00 -1.874E-05 .           *.            .            .            .
  1.350E+00 -1.874E-05 .           *.            .            .            .
  1.360E+00 -1.874E-05 .           *.            .            .            .
  1.370E+00 -1.874E-05 .           *.            .            .            .
  1.380E+00 -1.874E-05 .           *.            .            .            .
  1.390E+00 -1.874E-05 .           *.            .            .            .
  1.400E+00 -1.874E-05 .           *.            .            .            .
  1.410E+00 -1.874E-05 .           *.            .            .            .
  1.420E+00 -1.874E-05 .           *.            .            .            .
  1.430E+00 -1.874E-05 .           *.            .            .            .
  1.440E+00 -1.874E-05 .           *.            .            .            .
  1.450E+00 -1.874E-05 .           *.            .            .            .
  1.460E+00 -1.874E-05 .           *.            .            .            .
  1.470E+00 -1.874E-05 .           *.            .            .            .
  1.480E+00 -1.875E-05 .           *.            .            .            .
  1.490E+00 -1.875E-05 .           *.            .            .            .
  1.500E+00 -1.875E-05 .           *.            .            .            .
  1.510E+00 -1.875E-05 .           *.            .            .            .
  1.520E+00 -1.875E-05 .           *.            .            .            .
  1.530E+00 -1.875E-05 .           *.            .            .            .
  1.540E+00 -1.875E-05 .           *.            .            .            .
  1.550E+00 -1.875E-05 .           *.            .            .            .
  1.560E+00 -1.875E-05 .           *.            .            .            .
  1.570E+00 -1.875E-05 .           *.            .            .            .
  1.580E+00 -1.875E-05 .           *.            .            .            .
  1.590E+00 -1.875E-05 .           *.            .            .            .
  1.600E+00 -1.875E-05 .           *.            .            .            .
  1.610E+00 -1.875E-05 .           *.            .            .            .
  1.620E+00 -1.875E-05 .           *.            .            .            .
  1.630E+00 -1.875E-05 .           *.            .            .            .
  1.640E+00 -1.875E-05 .           *.            .            .            .
  1.650E+00 -1.875E-05 .           *.            .            .            .
  1.660E+00 -1.875E-05 .           *.            .            .            .
  1.670E+00 -1.875E-05 .           *.            .            .            .
  1.680E+00 -1.875E-05 .           *.            .            .            .
  1.690E+00 -1.875E-05 .           *.            .            .            .
  1.700E+00 -1.875E-05 .           *.            .            .            .
  1.710E+00 -1.875E-05 .           *.            .            .            .
  1.720E+00 -1.876E-05 .           *.            .            .            .
  1.730E+00 -1.876E-05 .           *.            .            .            .
  1.740E+00 -1.876E-05 .           *.            .            .            .
  1.750E+00 -1.876E-05 .           *.            .            .            .
  1.760E+00 -1.876E-05 .           *.            .            .            .
  1.770E+00 -1.876E-05 .           *.            .            .            .
  1.780E+00 -1.876E-05 .           *.            .            .            .
  1.790E+00 -1.876E-05 .           *.            .            .            .
  1.800E+00 -1.876E-05 .           *.            .            .            .
  1.810E+00 -1.876E-05 .           *.            .            .            .
  1.820E+00 -1.876E-05 .           *.            .            .            .
  1.830E+00 -1.876E-05 .           *.            .            .            .
  1.840E+00 -1.876E-05 .           *.            .            .            .
  1.850E+00 -1.876E-05 .           *.            .            .            .
  1.860E+00 -1.876E-05 .           *.            .            .            .
  1.870E+00 -1.876E-05 .           *.            .            .            .
  1.880E+00 -1.876E-05 .           *.            .            .            .
  1.890E+00 -1.876E-05 .           *.            .            .            .
  1.900E+00 -1.876E-05 .           *.            .            .            .
  1.910E+00 -1.876E-05 .           *.            .            .            .
  1.920E+00 -1.876E-05 .           *.            .            .            .
  1.930E+00 -1.876E-05 .           *.            .            .            .
  1.940E+00 -1.876E-05 .           *.            .            .            .
  1.950E+00 -1.876E-05 .           *.            .            .            .
  1.960E+00 -1.877E-05 .           *.            .            .            .
  1.970E+00 -1.877E-05 .           *.            .            .            .
  1.980E+00 -1.877E-05 .           *.            .            .            .
  1.990E+00 -1.877E-05 .           *.            .            .            .
  2.000E+00 -1.877E-05 .           *.            .            .            .
  2.010E+00 -1.877E-05 .           *.            .            .            .
  2.020E+00 -1.877E-05 .           *.            .            .            .
  2.030E+00 -1.877E-05 .           *.            .            .            .
  2.040E+00 -1.877E-05 .           *.            .            .            .
  2.050E+00 -1.877E-05 .           *.            .            .            .
  2.060E+00 -1.877E-05 .           *.            .            .            .
  2.070E+00 -1.877E-05 .           *.            .            .            .
  2.080E+00 -1.877E-05 .           *.            .            .            .
  2.090E+00 -1.877E-05 .           *.            .            .            .
  2.100E+00 -1.877E-05 .           *.            .            .            .
  2.110E+00 -1.877E-05 .           *.            .            .            .
  2.120E+00 -1.877E-05 .           *.            .            .            .
  2.130E+00 -1.877E-05 .           *.            .            .            .
  2.140E+00 -1.877E-05 .           *.            .            .            .
  2.150E+00 -1.877E-05 .           *.            .            .            .
  2.160E+00 -1.877E-05 .           *.            .            .            .
  2.170E+00 -1.877E-05 .           *.            .            .            .
  2.180E+00 -1.877E-05 .           *.            .            .            .
  2.190E+00 -1.877E-05 .           *.            .            .            .
  2.200E+00 -1.878E-05 .           *.            .            .            .
  2.210E+00 -1.878E-05 .           *.            .            .            .
  2.220E+00 -1.878E-05 .           *.            .            .            .
  2.230E+00 -1.878E-05 .           *.            .            .            .
  2.240E+00 -1.878E-05 .           *.            .            .            .
  2.250E+00 -1.878E-05 .           *.            .            .            .
  2.260E+00 -1.878E-05 .           *.            .            .            .
  2.270E+00 -1.878E-05 .           *.            .            .            .
  2.280E+00 -1.878E-05 .           *.            .            .            .
  2.290E+00 -1.878E-05 .           *.            .            .            .
  2.300E+00 -1.878E-05 .           *.            .            .            .
  2.310E+00 -1.878E-05 .           *.            .            .            .
  2.320E+00 -1.878E-05 .           *.            .            .            .
  2.330E+00 -1.878E-05 .           *.            .            .            .
  2.340E+00 -1.878E-05 .           *.            .            .            .
  2.350E+00 -1.878E-05 .           *.            .            .            .
  2.360E+00 -1.878E-05 .           *.            .            .            .
  2.370E+00 -1.878E-05 .           *.            .            .            .
  2.380E+00 -1.878E-05 .           *.            .            .            .
  2.390E+00 -1.878E-05 .           *.            .            .            .
  2.400E+00 -1.878E-05 .           *.            .            .            .
  2.410E+00 -1.878E-05 .           *.            .            .            .
  2.420E+00 -1.878E-05 .           *.            .            .            .
  2.430E+00 -1.878E-05 .           *.            .            .            .
  2.440E+00 -1.878E-05 .           *.            .            .            .
  2.450E+00 -1.879E-05 .           *.            .            .            .
  2.460E+00 -1.879E-05 .           *.            .            .            .
  2.470E+00 -1.879E-05 .           *.            .            .            .
  2.480E+00 -1.879E-05 .           *.            .            .            .
  2.490E+00 -1.879E-05 .           *.            .            .            .
  2.500E+00 -1.879E-05 .           *.            .            .            .
  2.510E+00 -1.879E-05 .           *.            .            .            .
  2.520E+00 -1.879E-05 .           *.            .            .            .
  2.530E+00 -1.879E-05 .           *.            .            .            .
  2.540E+00 -1.879E-05 .           *.            .            .            .
  2.550E+00 -1.879E-05 .           *.            .            .            .
  2.560E+00 -1.879E-05 .           *.            .            .            .
  2.570E+00 -1.879E-05 .           *.            .            .            .
  2.580E+00 -1.879E-05 .           *.            .            .            .
  2.590E+00 -1.879E-05 .           *.            .            .            .
  2.600E+00 -1.879E-05 .           *.            .            .            .
  2.610E+00 -1.879E-05 .           *.            .            .            .
  2.620E+00 -1.879E-05 .           *.            .            .            .
  2.630E+00 -1.879E-05 .           *.            .            .            .
  2.640E+00 -1.879E-05 .           *.            .            .            .
  2.650E+00 -1.879E-05 .           *.            .            .            .
  2.660E+00 -1.879E-05 .           *.            .            .            .
  2.670E+00 -1.879E-05 .           *.            .            .            .
  2.680E+00 -1.879E-05 .           *.            .            .            .
  2.690E+00 -1.880E-05 .           *.            .            .            .
  2.700E+00 -1.880E-05 .           *.            .            .            .
  2.710E+00 -1.880E-05 .           *.            .            .            .
  2.720E+00 -1.880E-05 .           *.            .            .            .
  2.730E+00 -1.880E-05 .           *.            .            .            .
  2.740E+00 -1.880E-05 .           *.            .            .            .
  2.750E+00 -1.880E-05 .           *.            .            .            .
  2.760E+00 -1.880E-05 .           *.            .            .            .
  2.770E+00 -1.880E-05 .           *.            .            .            .
  2.780E+00 -1.880E-05 .           *.            .            .            .
  2.790E+00 -1.880E-05 .           *.            .            .            .
  2.800E+00 -1.880E-05 .           *.            .            .            .
  2.810E+00 -1.880E-05 .           *.            .            .            .
  2.820E+00 -1.880E-05 .           *.            .            .            .
  2.830E+00 -1.880E-05 .           *.            .            .            .
  2.840E+00 -1.880E-05 .           *.            .            .            .
  2.850E+00 -1.880E-05 .           *.            .            .            .
  2.860E+00 -1.880E-05 .           *.            .            .            .
  2.870E+00 -1.880E-05 .           *.            .            .            .
  2.880E+00 -1.880E-05 .           *.            .            .            .
  2.890E+00 -1.880E-05 .           *.            .            .            .
  2.900E+00 -1.880E-05 .           *.            .            .            .
  2.910E+00 -1.880E-05 .           *.            .            .            .
  2.920E+00 -1.880E-05 .           *.            .            .            .
  2.930E+00 -1.880E-05 .           *.            .            .            .
  2.940E+00 -1.881E-05 .           *.            .            .            .
  2.950E+00 -1.881E-05 .           *.            .            .            .
  2.960E+00 -1.881E-05 .           *.            .            .            .
  2.970E+00 -1.881E-05 .           *.            .            .            .
  2.980E+00 -1.881E-05 .           *.            .            .            .
  2.990E+00 -1.881E-05 .           *.            .            .            .
  3.000E+00 -1.881E-05 .           *.            .            .            .
  3.010E+00 -1.881E-05 .           *.            .            .            .
  3.020E+00 -1.881E-05 .           *.            .            .            .
  3.030E+00 -1.881E-05 .           *.            .            .            .
  3.040E+00 -1.881E-05 .           *.            .            .            .
  3.050E+00 -1.881E-05 .           *.            .            .            .
  3.060E+00 -1.881E-05 .           *.            .            .            .
  3.070E+00 -1.881E-05 .           *.            .            .            .
  3.080E+00 -1.881E-05 .           *.            .            .            .
  3.090E+00 -1.881E-05 .           *.            .            .            .
  3.100E+00 -1.881E-05 .           *.            .            .            .
  3.110E+00 -1.881E-05 .           *.            .            .            .
  3.120E+00 -1.881E-05 .           *.            .            .            .
  3.130E+00 -1.881E-05 .           *.            .            .            .
  3.140E+00 -1.881E-05 .           *.            .            .            .
  3.150E+00 -1.881E-05 .           *.            .            .            .
  3.160E+00 -1.881E-05 .           *.            .            .            .
  3.170E+00 -1.881E-05 .           *.            .            .            .
  3.180E+00 -1.882E-05 .           *.            .            .            .
  3.190E+00 -1.882E-05 .           *.            .            .            .
  3.200E+00 -1.882E-05 .           *.            .            .            .
  3.210E+00 -1.882E-05 .           *.            .            .            .
  3.220E+00 -1.882E-05 .           *.            .            .            .
  3.230E+00 -1.882E-05 .           *.            .            .            .
  3.240E+00 -1.882E-05 .           *.            .            .            .
  3.250E+00 -1.882E-05 .           *.            .            .            .
  3.260E+00 -1.882E-05 .           *.            .            .            .
  3.270E+00 -1.882E-05 .           *.            .            .            .
  3.280E+00 -1.882E-05 .           *.            .            .            .
  3.290E+00 -1.882E-05 .           *.            .            .            .
  3.300E+00 -1.882E-05 .           *.            .            .            .
  3.310E+00 -1.882E-05 .           *.            .            .            .
  3.320E+00 -1.882E-05 .           *.            .            .            .
  3.330E+00 -1.882E-05 .           *.            .            .            .
  3.340E+00 -1.882E-05 .           *.            .            .            .
  3.350E+00 -1.882E-05 .           *.            .            .            .
  3.360E+00 -1.882E-05 .           *.            .            .            .
  3.370E+00 -1.882E-05 .           *.            .            .            .
  3.380E+00 -1.882E-05 .           *.            .            .            .
  3.390E+00 -1.882E-05 .           *.            .            .            .
  3.400E+00 -1.882E-05 .           *.            .            .            .
  3.410E+00 -1.882E-05 .           *.            .            .            .
  3.420E+00 -1.882E-05 .           *.            .            .            .
  3.430E+00 -1.883E-05 .           *.            .            .            .
  3.440E+00 -1.883E-05 .           *.            .            .            .
  3.450E+00 -1.883E-05 .           *.            .            .            .
  3.460E+00 -1.883E-05 .           *.            .            .            .
  3.470E+00 -1.883E-05 .           *.            .            .            .
  3.480E+00 -1.883E-05 .           *.            .            .            .
  3.490E+00 -1.883E-05 .           *.            .            .            .
  3.500E+00 -1.883E-05 .           *.            .            .            .
  3.510E+00 -1.883E-05 .           *.            .            .            .
  3.520E+00 -1.883E-05 .           *.            .            .            .
  3.530E+00 -1.883E-05 .           *.            .            .            .
  3.540E+00 -1.883E-05 .           *.            .            .            .
  3.550E+00 -1.883E-05 .           *.            .            .            .
  3.560E+00 -1.883E-05 .           *.            .            .            .
  3.570E+00 -1.883E-05 .           *.            .            .            .
  3.580E+00 -1.883E-05 .           *.            .            .            .
  3.590E+00 -1.883E-05 .           *.            .            .            .
  3.600E+00 -1.883E-05 .           *.            .            .            .
  3.610E+00 -1.883E-05 .           *.            .            .            .
  3.620E+00 -1.883E-05 .           *.            .            .            .
  3.630E+00 -1.883E-05 .           *.            .            .            .
  3.640E+00 -1.883E-05 .           *.            .            .            .
  3.650E+00 -1.883E-05 .           *.            .            .            .
  3.660E+00 -1.883E-05 .           *.            .            .            .
  3.670E+00 -1.884E-05 .           *.            .            .            .
  3.680E+00 -1.884E-05 .           *.            .            .            .
  3.690E+00 -1.884E-05 .           *.            .            .            .
  3.700E+00 -1.884E-05 .           *.            .            .            .
  3.710E+00 -1.884E-05 .           *.            .            .            .
  3.720E+00 -1.884E-05 .           *.            .            .            .
  3.730E+00 -1.884E-05 .           *.            .            .            .
  3.740E+00 -1.884E-05 .           *.            .            .            .
  3.750E+00 -1.884E-05 .           *.            .            .            .
  3.760E+00 -1.884E-05 .           *.            .            .            .
  3.770E+00 -1.884E-05 .           *.            .            .            .
  3.780E+00 -1.884E-05 .           *.            .            .            .
  3.790E+00 -1.884E-05 .           *.            .            .            .
  3.800E+00 -1.884E-05 .           *.            .            .            .
  3.810E+00 -1.884E-05 .           *.            .            .            .
  3.820E+00 -1.884E-05 .           *.            .            .            .
  3.830E+00 -1.884E-05 .           *.            .            .            .
  3.840E+00 -1.884E-05 .           *.            .            .            .
  3.850E+00 -1.884E-05 .           *.            .            .            .
  3.860E+00 -1.884E-05 .           *.            .            .            .
  3.870E+00 -1.884E-05 .           *.            .            .            .
  3.880E+00 -1.884E-05 .           *.            .            .            .
  3.890E+00 -1.884E-05 .           *.            .            .            .
  3.900E+00 -1.884E-05 .           *.            .            .            .
  3.910E+00 -1.884E-05 .           *.            .            .            .
  3.920E+00 -1.885E-05 .           *.            .            .            .
  3.930E+00 -1.885E-05 .           *.            .            .            .
  3.940E+00 -1.885E-05 .           *.            .            .            .
  3.950E+00 -1.885E-05 .           *.            .            .            .
  3.960E+00 -1.885E-05 .           *.            .            .            .
  3.970E+00 -1.885E-05 .           *.            .            .            .
  3.980E+00 -1.885E-05 .           *.            .            .            .
  3.990E+00 -1.885E-05 .           *.            .            .            .
  4.000E+00 -1.885E-05 .           *.            .            .            .
  4.010E+00 -1.885E-05 .           *.            .            .            .
  4.020E+00 -1.885E-05 .           *.            .            .            .
  4.030E+00 -1.885E-05 .           *.            .            .            .
  4.040E+00 -1.885E-05 .           *.            .            .            .
  4.050E+00 -1.885E-05 .           *.            .            .            .
  4.060E+00 -1.885E-05 .           *.            .            .            .
  4.070E+00 -1.885E-05 .           *.            .            .            .
  4.080E+00 -1.885E-05 .           *.            .            .            .
  4.090E+00 -1.885E-05 .           *.            .            .            .
  4.100E+00 -1.885E-05 .           *.            .            .            .
  4.110E+00 -1.885E-05 .           *.            .            .            .
  4.120E+00 -1.885E-05 .           *.            .            .            .
  4.130E+00 -1.885E-05 .           *.            .            .            .
  4.140E+00 -1.885E-05 .           *.            .            .            .
  4.150E+00 -1.885E-05 .           *.            .            .            .
  4.160E+00 -1.885E-05 .           *.            .            .            .
  4.170E+00 -1.886E-05 .           *.            .            .            .
  4.180E+00 -1.886E-05 .           *.            .            .            .
  4.190E+00 -1.886E-05 .           *.            .            .            .
  4.200E+00 -1.886E-05 .           *.            .            .            .
  4.210E+00 -1.886E-05 .           *.            .            .            .
  4.220E+00 -1.886E-05 .           *.            .            .            .
  4.230E+00 -1.886E-05 .           *.            .            .            .
  4.240E+00 -1.886E-05 .           *.            .            .            .
  4.250E+00 -1.886E-05 .           *.            .            .            .
  4.260E+00 -1.886E-05 .           *.            .            .            .
  4.270E+00 -1.886E-05 .           *.            .            .            .
  4.280E+00 -1.886E-05 .           *.            .            .            .
  4.290E+00 -1.886E-05 .           *.            .            .            .
  4.300E+00 -1.886E-05 .           *.            .            .            .
  4.310E+00 -1.886E-05 .           *.            .            .            .
  4.320E+00 -1.886E-05 .           *.            .            .            .
  4.330E+00 -1.886E-05 .           *.            .            .            .
  4.340E+00 -1.886E-05 .           *.            .            .            .
  4.350E+00 -1.886E-05 .           *.            .            .            .
  4.360E+00 -1.886E-05 .           *.            .            .            .
  4.370E+00 -1.886E-05 .           *.            .            .            .
  4.380E+00 -1.886E-05 .           *.            .            .            .
  4.390E+00 -1.886E-05 .           *.            .            .            .
  4.400E+00 -1.886E-05 .           *.            .            .            .
  4.410E+00 -1.886E-05 .           *.            .            .            .
  4.420E+00 -1.887E-05 .           *.            .            .            .
  4.430E+00 -1.887E-05 .           *.            .            .            .
  4.440E+00 -1.887E-05 .           *.            .            .            .
  4.450E+00 -1.887E-05 .           *.            .            .            .
  4.460E+00 -1.887E-05 .           *.            .            .            .
  4.470E+00 -1.887E-05 .           *.            .            .            .
  4.480E+00 -1.887E-05 .           *.            .            .            .
  4.490E+00 -1.887E-05 .           *.            .            .            .
  4.500E+00 -1.887E-05 .           *.            .            .            .
  4.510E+00 -1.887E-05 .           *.            .            .            .
  4.520E+00 -1.887E-05 .           *.            .            .            .
  4.530E+00 -1.887E-05 .           *.            .            .            .
  4.540E+00 -1.887E-05 .           *.            .            .            .
  4.550E+00 -1.887E-05 .           *.            .            .            .
  4.560E+00 -1.887E-05 .           *.            .            .            .
  4.570E+00 -1.887E-05 .           *.            .            .            .
  4.580E+00 -1.887E-05 .           *.            .            .            .
  4.590E+00 -1.887E-05 .           *.            .            .            .
  4.600E+00 -1.887E-05 .           *.            .            .            .
  4.610E+00 -1.887E-05 .           *.            .            .            .
  4.620E+00 -1.887E-05 .           *.            .            .            .
  4.630E+00 -1.887E-05 .           *.            .            .            .
  4.640E+00 -1.887E-05 .           *.            .            .            .
  4.650E+00 -1.887E-05 .           *.            .            .            .
  4.660E+00 -1.887E-05 .           *.            .            .            .
  4.670E+00 -1.888E-05 .           *.            .            .            .
  4.680E+00 -1.888E-05 .           *.            .            .            .
  4.690E+00 -1.888E-05 .           *.            .            .            .
  4.700E+00 -1.888E-05 .           *.            .            .            .
  4.710E+00 -1.888E-05 .           *.            .            .            .
  4.720E+00 -1.888E-05 .           *.            .            .            .
  4.730E+00 -1.888E-05 .           *.            .            .            .
  4.740E+00 -1.888E-05 .           *.            .            .            .
  4.750E+00 -1.888E-05 .           *.            .            .            .
  4.760E+00 -1.888E-05 .           *.            .            .            .
  4.770E+00 -1.888E-05 .           *.            .            .            .
  4.780E+00 -1.888E-05 .           *.            .            .            .
  4.790E+00 -1.888E-05 .           *.            .            .            .
  4.800E+00 -1.888E-05 .           *.            .            .            .
  4.810E+00 -1.888E-05 .           *.            .            .            .
  4.820E+00 -1.888E-05 .           *.            .            .            .
  4.830E+00 -1.888E-05 .           *.            .            .            .
  4.840E+00 -1.888E-05 .           *.            .            .            .
  4.850E+00 -1.888E-05 .           *.            .            .            .
  4.860E+00 -1.888E-05 .           *.            .            .            .
  4.870E+00 -1.888E-05 .           *.            .            .            .
  4.880E+00 -1.888E-05 .           *.            .            .            .
  4.890E+00 -1.888E-05 .           *.            .            .            .
  4.900E+00 -1.888E-05 .           *.            .            .            .
  4.910E+00 -1.888E-05 .           *.            .            .            .
  4.920E+00 -1.889E-05 .           *.            .            .            .
  4.930E+00 -1.889E-05 .           *.            .            .            .
  4.940E+00 -1.889E-05 .           *.            .            .            .
  4.950E+00 -1.889E-05 .           *.            .            .            .
  4.960E+00 -1.889E-05 .           *.            .            .            .
  4.970E+00 -1.889E-05 .           *.            .            .            .
  4.980E+00 -1.889E-05 .           *.            .            .            .
  4.990E+00 -1.889E-05 .           *.            .            .            .
  5.000E+00 -1.889E-05 .           *.            .            .            .
  5.010E+00 -1.889E-05 .           *.            .            .            .
  5.020E+00 -1.889E-05 .           *.            .            .            .
  5.030E+00 -1.889E-05 .           *.            .            .            .
  5.040E+00 -1.889E-05 .           *.            .            .            .
  5.050E+00 -1.889E-05 .           *.            .            .            .
  5.060E+00 -1.889E-05 .           *.            .            .            .
  5.070E+00 -1.889E-05 .           *.            .            .            .
  5.080E+00 -1.889E-05 .           *.            .            .            .
  5.090E+00 -1.889E-05 .           *.            .            .            .
  5.100E+00 -1.889E-05 .           *.            .            .            .
  5.110E+00 -1.889E-05 .           *.            .            .            .
  5.120E+00 -1.889E-05 .           *.            .            .            .
  5.130E+00 -1.889E-05 .           *.            .            .            .
  5.140E+00 -1.889E-05 .           *.            .            .            .
  5.150E+00 -1.889E-05 .           *.            .            .            .
  5.160E+00 -1.889E-05 .           *.            .            .            .
  5.170E+00 -1.890E-05 .           *.            .            .            .
  5.180E+00 -1.890E-05 .           *.            .            .            .
  5.190E+00 -1.890E-05 .           *.            .            .            .
  5.200E+00 -1.890E-05 .           *.            .            .            .
  5.210E+00 -1.890E-05 .           *.            .            .            .
  5.220E+00 -1.890E-05 .           *.            .            .            .
  5.230E+00 -1.890E-05 .           *.            .            .            .
  5.240E+00 -1.890E-05 .           *.            .            .            .
  5.250E+00 -1.890E-05 .           *.            .            .            .
  5.260E+00 -1.890E-05 .           *.            .            .            .
  5.270E+00 -1.890E-05 .           *.            .            .            .
  5.280E+00 -1.890E-05 .           *.            .            .            .
  5.290E+00 -1.890E-05 .           *.            .            .            .
  5.300E+00 -1.890E-05 .           *.            .            .            .
  5.310E+00 -1.890E-05 .           *.            .            .            .
  5.320E+00 -1.890E-05 .           *.            .            .            .
  5.330E+00 -1.890E-05 .           *.            .            .            .
  5.340E+00 -1.890E-05 .           *.            .            .            .
  5.350E+00 -1.890E-05 .           *.            .            .            .
  5.360E+00 -1.890E-05 .           *.            .            .            .
  5.370E+00 -1.890E-05 .           *.            .            .            .
  5.380E+00 -1.890E-05 .           *.            .            .            .
  5.390E+00 -1.890E-05 .           *.            .            .            .
  5.400E+00 -1.890E-05 .           *.            .            .            .
  5.410E+00 -1.890E-05 .           *.            .            .            .
  5.420E+00 -1.891E-05 .           *.            .            .            .
  5.430E+00 -1.891E-05 .           *.            .            .            .
  5.440E+00 -1.891E-05 .           *.            .            .            .
  5.450E+00 -1.891E-05 .           *.            .            .            .
  5.460E+00 -1.891E-05 .           *.            .            .            .
  5.470E+00 -1.891E-05 .           *.            .            .            .
  5.480E+00 -1.891E-05 .           *.            .            .            .
  5.490E+00 -1.891E-05 .           *.            .            .            .
  5.500E+00 -1.891E-05 .           *.            .            .            .
  5.510E+00 -1.891E-05 .           *.            .            .            .
  5.520E+00 -1.891E-05 .           *.            .            .            .
  5.530E+00 -1.891E-05 .           *.            .            .            .
  5.540E+00 -1.891E-05 .           *.            .            .            .
  5.550E+00 -1.891E-05 .           *.            .            .            .
  5.560E+00 -1.891E-05 .           *.            .            .            .
  5.570E+00 -1.891E-05 .           *.            .            .            .
  5.580E+00 -1.891E-05 .           *.            .            .            .
  5.590E+00 -1.891E-05 .           *.            .            .            .
  5.600E+00 -1.891E-05 .           *.            .            .            .
  5.610E+00 -1.891E-05 .           *.            .            .            .
  5.620E+00 -1.891E-05 .           *.            .            .            .
  5.630E+00 -1.891E-05 .           *.            .            .            .
  5.640E+00 -1.891E-05 .           *.            .            .            .
  5.650E+00 -1.891E-05 .           *.            .            .            .
  5.660E+00 -1.891E-05 .           *.            .            .            .
  5.670E+00 -1.892E-05 .           *.            .            .            .
  5.680E+00 -1.892E-05 .           *.            .            .            .
  5.690E+00 -1.892E-05 .           *.            .            .            .
  5.700E+00 -1.892E-05 .           *.            .            .            .
  5.710E+00 -1.892E-05 .           *.            .            .            .
  5.720E+00 -1.892E-05 .           *.            .            .            .
  5.730E+00 -1.892E-05 .           *.            .            .            .
  5.740E+00 -1.892E-05 .           *.            .            .            .
  5.750E+00 -1.892E-05 .           *.            .            .            .
  5.760E+00 -1.892E-05 .           *.            .            .            .
  5.770E+00 -1.892E-05 .           *.            .            .            .
  5.780E+00 -1.892E-05 .           *.            .            .            .
  5.790E+00 -1.892E-05 .           *.            .            .            .
  5.800E+00 -1.892E-05 .           *.            .            .            .
  5.810E+00 -1.892E-05 .           *.            .            .            .
  5.820E+00 -1.892E-05 .           *.            .            .            .
  5.830E+00 -1.892E-05 .           *.            .            .            .
  5.840E+00 -1.892E-05 .           *.            .            .            .
  5.850E+00 -1.892E-05 .           *.            .            .            .
  5.860E+00 -1.892E-05 .           *.            .            .            .
  5.870E+00 -1.892E-05 .           *.            .            .            .
  5.880E+00 -1.892E-05 .           *.            .            .            .
  5.890E+00 -1.892E-05 .           *.            .            .            .
  5.900E+00 -1.892E-05 .           *.            .            .            .
  5.910E+00 -1.892E-05 .           *.            .            .            .
  5.920E+00 -1.893E-05 .           *.            .            .            .
  5.930E+00 -1.893E-05 .           *.            .            .            .
  5.940E+00 -1.893E-05 .           *.            .            .            .
  5.950E+00 -1.893E-05 .           *.            .            .            .
  5.960E+00 -1.893E-05 .           *.            .            .            .
  5.970E+00 -1.893E-05 .           *.            .            .            .
  5.980E+00 -1.893E-05 .           *.            .            .            .
  5.990E+00 -1.893E-05 .           *.            .            .            .
  6.000E+00 -1.893E-05 .           *.            .            .            .
  6.010E+00 -1.893E-05 .           *.            .            .            .
  6.020E+00 -1.893E-05 .           *.            .            .            .
  6.030E+00 -1.893E-05 .           *.            .            .            .
  6.040E+00 -1.893E-05 .           *.            .            .            .
  6.050E+00 -1.893E-05 .           *.            .            .            .
  6.060E+00 -1.893E-05 .           *.            .            .            .
  6.070E+00 -1.893E-05 .           *.            .            .            .
  6.080E+00 -1.893E-05 .           *.            .            .            .
  6.090E+00 -1.893E-05 .           *.            .            .            .
  6.100E+00 -1.893E-05 .           *.            .            .            .
  6.110E+00 -1.893E-05 .           *.            .            .            .
  6.120E+00 -1.893E-05 .           *.            .            .            .
  6.130E+00 -1.893E-05 .           *.            .            .            .
  6.140E+00 -1.893E-05 .           *.            .            .            .
  6.150E+00 -1.893E-05 .           *.            .            .            .
  6.160E+00 -1.893E-05 .           *.            .            .            .
  6.170E+00 -1.894E-05 .           *.            .            .            .
  6.180E+00 -1.894E-05 .           *.            .            .            .
  6.190E+00 -1.894E-05 .           *.            .            .            .
  6.200E+00 -1.894E-05 .           *.            .            .            .
  6.210E+00 -1.894E-05 .           *.            .            .            .
  6.220E+00 -1.894E-05 .           *.            .            .            .
  6.230E+00 -1.894E-05 .           *.            .            .            .
  6.240E+00 -1.894E-05 .           *.            .            .            .
  6.250E+00 -1.894E-05 .           *.            .            .            .
  6.260E+00 -1.894E-05 .           *.            .            .            .
  6.270E+00 -1.894E-05 .           *.            .            .            .
  6.280E+00 -1.894E-05 .           *.            .            .            .
  6.290E+00 -1.894E-05 .           *.            .            .            .
  6.300E+00 -1.894E-05 .           *.            .            .            .
  6.310E+00 -1.894E-05 .           *.            .            .            .
  6.320E+00 -1.894E-05 .           *.            .            .            .
  6.330E+00 -1.894E-05 .           *.            .            .            .
  6.340E+00 -1.894E-05 .           *.            .            .            .
  6.350E+00 -1.894E-05 .           *.            .            .            .
  6.360E+00 -1.894E-05 .           *.            .            .            .
  6.370E+00 -1.894E-05 .           *.            .            .            .
  6.380E+00 -1.894E-05 .           *.            .            .            .
  6.390E+00 -1.894E-05 .           *.            .            .            .
  6.400E+00 -1.894E-05 .           *.            .            .            .
  6.410E+00 -1.894E-05 .           *.            .            .            .
  6.420E+00 -1.894E-05 .           *.            .            .            .
  6.430E+00 -1.895E-05 .           *.            .            .            .
  6.440E+00 -1.895E-05 .           *.            .            .            .
  6.450E+00 -1.895E-05 .           *.            .            .            .
  6.460E+00 -1.895E-05 .           *.            .            .            .
  6.470E+00 -1.895E-05 .           *.            .            .            .
  6.480E+00 -1.895E-05 .           *.            .            .            .
  6.490E+00 -1.895E-05 .           *.            .            .            .
  6.500E+00 -1.895E-05 .           *.            .            .            .
  6.510E+00 -1.895E-05 .           *.            .            .            .
  6.520E+00 -1.895E-05 .           *.            .            .            .
  6.530E+00 -1.895E-05 .           *.            .            .            .
  6.540E+00 -1.895E-05 .           *.            .            .            .
  6.550E+00 -1.895E-05 .           *.            .            .            .
  6.560E+00 -1.895E-05 .           *.            .            .            .
  6.570E+00 -1.895E-05 .           *.            .            .            .
  6.580E+00 -1.895E-05 .           *.            .            .            .
  6.590E+00 -1.895E-05 .           *.            .            .            .
  6.600E+00 -1.895E-05 .           *.            .            .            .
  6.610E+00 -1.895E-05 .           *.            .            .            .
  6.620E+00 -1.895E-05 .           *.            .            .            .
  6.630E+00 -1.895E-05 .           *.            .            .            .
  6.640E+00 -1.895E-05 .           *.            .            .            .
  6.650E+00 -1.895E-05 .           *.            .            .            .
  6.660E+00 -1.895E-05 .           *.            .            .            .
  6.670E+00 -1.895E-05 .           *.            .            .            .
  6.680E+00 -1.896E-05 .           *.            .            .            .
  6.690E+00 -1.896E-05 .           *.            .            .            .
  6.700E+00 -1.896E-05 .           *.            .            .            .
  6.710E+00 -1.896E-05 .           *.            .            .            .
  6.720E+00 -1.896E-05 .           *.            .            .            .
  6.730E+00 -1.896E-05 .           *.            .            .            .
  6.740E+00 -1.896E-05 .           *.            .            .            .
  6.750E+00 -1.896E-05 .           *.            .            .            .
  6.760E+00 -1.896E-05 .           *.            .            .            .
  6.770E+00 -1.896E-05 .           *.            .            .            .
  6.780E+00 -1.896E-05 .           *.            .            .            .
  6.790E+00 -1.896E-05 .           *.            .            .            .
  6.800E+00 -1.896E-05 .           *.            .            .            .
  6.810E+00 -1.896E-05 .           *.            .            .            .
  6.820E+00 -1.896E-05 .           *.            .            .            .
  6.830E+00 -1.896E-05 .           *.            .            .            .
  6.840E+00 -1.896E-05 .           *.            .            .            .
  6.850E+00 -1.896E-05 .           *.            .            .            .
  6.860E+00 -1.896E-05 .           *.            .            .            .
  6.870E+00 -1.896E-05 .           *.            .            .            .
  6.880E+00 -1.896E-05 .           *.            .            .            .
  6.890E+00 -1.896E-05 .           *.            .            .            .
  6.900E+00 -1.896E-05 .           *.            .            .            .
  6.910E+00 -1.896E-05 .           *.            .            .            .
  6.920E+00 -1.896E-05 .           *.            .            .            .
  6.930E+00 -1.897E-05 .           *.            .            .            .
  6.940E+00 -1.897E-05 .           *.            .            .            .
  6.950E+00 -1.897E-05 .           *.            .            .            .
  6.960E+00 -1.897E-05 .           *.            .            .            .
  6.970E+00 -1.897E-05 .           *.            .            .            .
  6.980E+00 -1.897E-05 .           *.            .            .            .
  6.990E+00 -1.897E-05 .           *.            .            .            .
  7.000E+00 -1.897E-05 .           *.            .            .            .
  7.010E+00 -1.897E-05 .           *.            .            .            .
  7.020E+00 -1.897E-05 .           *.            .            .            .
  7.030E+00 -1.897E-05 .           *.            .            .            .
  7.040E+00 -1.897E-05 .           *.            .            .            .
  7.050E+00 -1.897E-05 .           *.            .            .            .
  7.060E+00 -1.897E-05 .           *.            .            .            .
  7.070E+00 -1.897E-05 .           *.            .            .            .
  7.080E+00 -1.897E-05 .           *.            .            .            .
  7.090E+00 -1.897E-05 .           *.            .            .            .
  7.100E+00 -1.897E-05 .           *.            .            .            .
  7.110E+00 -1.897E-05 .           *.            .            .            .
  7.120E+00 -1.897E-05 .           *.            .            .            .
  7.130E+00 -1.897E-05 .           *.            .            .            .
  7.140E+00 -1.897E-05 .           *.            .            .            .
  7.150E+00 -1.897E-05 .           *.            .            .            .
  7.160E+00 -1.897E-05 .           *.            .            .            .
  7.170E+00 -1.897E-05 .           *.            .            .            .
  7.180E+00 -1.897E-05 .           *.            .            .            .
  7.190E+00 -1.898E-05 .           *.            .            .            .
  7.200E+00 -1.898E-05 .           *.            .            .            .
  7.210E+00 -1.898E-05 .           *.            .            .            .
  7.220E+00 -1.898E-05 .           *.            .            .            .
  7.230E+00 -1.898E-05 .           *.            .            .            .
  7.240E+00 -1.898E-05 .           *.            .            .            .
  7.250E+00 -1.898E-05 .           *.            .            .            .
  7.260E+00 -1.898E-05 .           *.            .            .            .
  7.270E+00 -1.898E-05 .           *.            .            .            .
  7.280E+00 -1.898E-05 .           *.            .            .            .
  7.290E+00 -1.898E-05 .           *.            .            .            .
  7.300E+00 -1.898E-05 .           *.            .            .            .
  7.310E+00 -1.898E-05 .           *.            .            .            .
  7.320E+00 -1.898E-05 .           *.            .            .            .
  7.330E+00 -1.898E-05 .           *.            .            .            .
  7.340E+00 -1.898E-05 .           *.            .            .            .
  7.350E+00 -1.898E-05 .           *.            .            .            .
  7.360E+00 -1.898E-05 .           *.            .            .            .
  7.370E+00 -1.898E-05 .           *.            .            .            .
  7.380E+00 -1.898E-05 .           *.            .            .            .
  7.390E+00 -1.898E-05 .           *.            .            .            .
  7.400E+00 -1.898E-05 .           *.            .            .            .
  7.410E+00 -1.898E-05 .           *.            .            .            .
  7.420E+00 -1.898E-05 .           *.            .            .            .
  7.430E+00 -1.898E-05 .           *.            .            .            .
  7.440E+00 -1.899E-05 .           *.            .            .            .
  7.450E+00 -1.899E-05 .           *.            .            .            .
  7.460E+00 -1.899E-05 .           *.            .            .            .
  7.470E+00 -1.899E-05 .           *.            .            .            .
  7.480E+00 -1.899E-05 .           *.            .            .            .
  7.490E+00 -1.899E-05 .           *.            .            .            .
  7.500E+00 -1.899E-05 .           *.            .            .            .
  7.510E+00 -1.899E-05 .           *.            .            .            .
  7.520E+00 -1.899E-05 .           *.            .            .            .
  7.530E+00 -1.899E-05 .           *.            .            .            .
  7.540E+00 -1.899E-05 .           *.            .            .            .
  7.550E+00 -1.899E-05 .           *.            .            .            .
  7.560E+00 -1.899E-05 .           *.            .            .            .
  7.570E+00 -1.899E-05 .           *.            .            .            .
  7.580E+00 -1.899E-05 .           *.            .            .            .
  7.590E+00 -1.899E-05 .           *.            .            .            .
  7.600E+00 -1.899E-05 .           *.            .            .            .
  7.610E+00 -1.899E-05 .           *.            .            .            .
  7.620E+00 -1.899E-05 .           *.            .            .            .
  7.630E+00 -1.899E-05 .           *.            .            .            .
  7.640E+00 -1.899E-05 .           *.            .            .            .
  7.650E+00 -1.899E-05 .           *.            .            .            .
  7.660E+00 -1.899E-05 .           *.            .            .            .
  7.670E+00 -1.899E-05 .           *.            .            .            .
  7.680E+00 -1.899E-05 .           *.            .            .            .
  7.690E+00 -1.899E-05 .           *.            .            .            .
  7.700E+00 -1.900E-05 .           *.            .            .            .
  7.710E+00 -1.900E-05 .           *.            .            .            .
  7.720E+00 -1.900E-05 .           *.            .            .            .
  7.730E+00 -1.900E-05 .           *.            .            .            .
  7.740E+00 -1.900E-05 .           *.            .            .            .
  7.750E+00 -1.900E-05 .           *.            .            .            .
  7.760E+00 -1.900E-05 .           *.            .            .            .
  7.770E+00 -1.900E-05 .           *.            .            .            .
  7.780E+00 -1.900E-05 .           *.            .            .            .
  7.790E+00 -1.900E-05 .           *.            .            .            .
  7.800E+00 -1.900E-05 .           *.            .            .            .
  7.810E+00 -1.900E-05 .           *.            .            .            .
  7.820E+00 -1.900E-05 .           *.            .            .            .
  7.830E+00 -1.900E-05 .           *.            .            .            .
  7.840E+00 -1.900E-05 .           *.            .            .            .
  7.850E+00 -1.900E-05 .           *.            .            .            .
  7.860E+00 -1.900E-05 .           *.            .            .            .
  7.870E+00 -1.900E-05 .           *.            .            .            .
  7.880E+00 -1.900E-05 .           *.            .            .            .
  7.890E+00 -1.900E-05 .           *.            .            .            .
  7.900E+00 -1.900E-05 .           *.            .            .            .
  7.910E+00 -1.900E-05 .           *.            .            .            .
  7.920E+00 -1.900E-05 .           *.            .            .            .
  7.930E+00 -1.900E-05 .           *.            .            .            .
  7.940E+00 -1.900E-05 .           *.            .            .            .
  7.950E+00 -1.900E-05 .           *.            .            .            .
  7.960E+00 -1.901E-05 .           *.            .            .            .
  7.970E+00 -1.901E-05 .           *.            .            .            .
  7.980E+00 -1.901E-05 .           *.            .            .            .
  7.990E+00 -1.901E-05 .           *.            .            .            .
  8.000E+00 -1.901E-05 .           *.            .            .            .
  8.010E+00 -1.901E-05 .           *.            .            .            .
  8.020E+00 -1.901E-05 .           *.            .            .            .
  8.030E+00 -1.901E-05 .           *.            .            .            .
  8.040E+00 -1.901E-05 .           *.            .            .            .
  8.050E+00 -1.901E-05 .           *.            .            .            .
  8.060E+00 -1.901E-05 .           *.            .            .            .
  8.070E+00 -1.901E-05 .           *.            .            .            .
  8.080E+00 -1.901E-05 .           *.            .            .            .
  8.090E+00 -1.901E-05 .           *.            .            .            .
  8.100E+00 -1.901E-05 .           *.            .            .            .
  8.110E+00 -1.901E-05 .           *.            .            .            .
  8.120E+00 -1.901E-05 .           *.            .            .            .
  8.130E+00 -1.901E-05 .           *.            .            .            .
  8.140E+00 -1.901E-05 .           *.            .            .            .
  8.150E+00 -1.901E-05 .           *.            .            .            .
  8.160E+00 -1.901E-05 .           *.            .            .            .
  8.170E+00 -1.901E-05 .           *.            .            .            .
  8.180E+00 -1.901E-05 .           *.            .            .            .
  8.190E+00 -1.901E-05 .           *.            .            .            .
  8.200E+00 -1.901E-05 .           *.            .            .            .
  8.210E+00 -1.902E-05 .           *.            .            .            .
  8.220E+00 -1.902E-05 .           *.            .            .            .
  8.230E+00 -1.902E-05 .           *.            .            .            .
  8.240E+00 -1.902E-05 .           *.            .            .            .
  8.250E+00 -1.902E-05 .           *.            .            .            .
  8.260E+00 -1.902E-05 .           *.            .            .            .
  8.270E+00 -1.902E-05 .           *.            .            .            .
  8.280E+00 -1.902E-05 .           *.            .            .            .
  8.290E+00 -1.902E-05 .           *.            .            .            .
  8.300E+00 -1.902E-05 .           *.            .            .            .
  8.310E+00 -1.902E-05 .           *.            .            .            .
  8.320E+00 -1.902E-05 .           *.            .            .            .
  8.330E+00 -1.902E-05 .           *.            .            .            .
  8.340E+00 -1.902E-05 .           *.            .            .            .
  8.350E+00 -1.902E-05 .           *.            .            .            .
  8.360E+00 -1.902E-05 .           *.            .            .            .
  8.370E+00 -1.902E-05 .           *.            .            .            .
  8.380E+00 -1.902E-05 .           *.            .            .            .
  8.390E+00 -1.902E-05 .           *.            .            .            .
  8.400E+00 -1.902E-05 .           *.            .            .            .
  8.410E+00 -1.902E-05 .           *.            .            .            .
  8.420E+00 -1.902E-05 .           *.            .            .            .
  8.430E+00 -1.902E-05 .           *.            .            .            .
  8.440E+00 -1.902E-05 .           *.            .            .            .
  8.450E+00 -1.902E-05 .           *.            .            .            .
  8.460E+00 -1.902E-05 .           *.            .            .            .
  8.470E+00 -1.903E-05 .           *.            .            .            .
  8.480E+00 -1.903E-05 .           *.            .            .            .
  8.490E+00 -1.903E-05 .           *.            .            .            .
  8.500E+00 -1.903E-05 .           *.            .            .            .
  8.510E+00 -1.903E-05 .           *.            .            .            .
  8.520E+00 -1.903E-05 .           *.            .            .            .
  8.530E+00 -1.903E-05 .           *.            .            .            .
  8.540E+00 -1.903E-05 .           *.            .            .            .
  8.550E+00 -1.903E-05 .           *.            .            .            .
  8.560E+00 -1.903E-05 .           *.            .            .            .
  8.570E+00 -1.903E-05 .           *.            .            .            .
  8.580E+00 -1.903E-05 .           *.            .            .            .
  8.590E+00 -1.903E-05 .           *.            .            .            .
  8.600E+00 -1.903E-05 .           *.            .            .            .
  8.610E+00 -1.903E-05 .           *.            .            .            .
  8.620E+00 -1.903E-05 .           *.            .            .            .
  8.630E+00 -1.903E-05 .           *.            .            .            .
  8.640E+00 -1.903E-05 .           *.            .            .            .
  8.650E+00 -1.903E-05 .           *.            .            .            .
  8.660E+00 -1.903E-05 .           *.            .            .            .
  8.670E+00 -1.903E-05 .           *.            .            .            .
  8.680E+00 -1.903E-05 .           *.            .            .            .
  8.690E+00 -1.903E-05 .           *.            .            .            .
  8.700E+00 -1.903E-05 .           *.            .            .            .
  8.710E+00 -1.903E-05 .           *.            .            .            .
  8.720E+00 -1.903E-05 .           *.            .            .            .
  8.730E+00 -1.904E-05 .           *.            .            .            .
  8.740E+00 -1.904E-05 .           *.            .            .            .
  8.750E+00 -1.904E-05 .           *.            .            .            .
  8.760E+00 -1.904E-05 .           *.            .            .            .
  8.770E+00 -1.904E-05 .           *.            .            .            .
  8.780E+00 -1.904E-05 .           *.            .            .            .
  8.790E+00 -1.904E-05 .           *.            .            .            .
  8.800E+00 -1.904E-05 .           *.            .            .            .
  8.810E+00 -1.904E-05 .           *.            .            .            .
  8.820E+00 -1.904E-05 .           *.            .            .            .
  8.830E+00 -1.904E-05 .           *.            .            .            .
  8.840E+00 -1.904E-05 .           *.            .            .            .
  8.850E+00 -1.904E-05 .           *.            .            .            .
  8.860E+00 -1.904E-05 .           *.            .            .            .
  8.870E+00 -1.904E-05 .           *.            .            .            .
  8.880E+00 -1.904E-05 .           *.            .            .            .
  8.890E+00 -1.904E-05 .           *.            .            .            .
  8.900E+00 -1.904E-05 .           *.            .            .            .
  8.910E+00 -1.904E-05 .           *.            .            .            .
  8.920E+00 -1.904E-05 .           *.            .            .            .
  8.930E+00 -1.904E-05 .           *.            .            .            .
  8.940E+00 -1.904E-05 .           *.            .            .            .
  8.950E+00 -1.904E-05 .           *.            .            .            .
  8.960E+00 -1.904E-05 .           *.            .            .            .
  8.970E+00 -1.904E-05 .           *.            .            .            .
  8.980E+00 -1.904E-05 .           *.            .            .            .
  8.990E+00 -1.905E-05 .           *.            .            .            .
  9.000E+00 -1.905E-05 .           *.            .            .            .
  9.010E+00 -1.905E-05 .           *.            .            .            .
  9.020E+00 -1.905E-05 .           *.            .            .            .
  9.030E+00 -1.905E-05 .           *.            .            .            .
  9.040E+00 -1.905E-05 .           *.            .            .            .
  9.050E+00 -1.905E-05 .           *.            .            .            .
  9.060E+00 -1.905E-05 .           *.            .            .            .
  9.070E+00 -1.905E-05 .           *.            .            .            .
  9.080E+00 -1.905E-05 .           *.            .            .            .
  9.090E+00 -1.905E-05 .           *.            .            .            .
  9.100E+00 -1.905E-05 .           *.            .            .            .
  9.110E+00 -1.905E-05 .           *.            .            .            .
  9.120E+00 -1.905E-05 .           *.            .            .            .
  9.130E+00 -1.905E-05 .           *.            .            .            .
  9.140E+00 -1.905E-05 .           *.            .            .            .
  9.150E+00 -1.905E-05 .           *.            .            .            .
  9.160E+00 -1.905E-05 .           *.            .            .            .
  9.170E+00 -1.905E-05 .           *.            .            .            .
  9.180E+00 -1.905E-05 .           *.            .            .            .
  9.190E+00 -1.905E-05 .           *.            .            .            .
  9.200E+00 -1.905E-05 .           *.            .            .            .
  9.210E+00 -1.905E-05 .           *.            .            .            .
  9.220E+00 -1.905E-05 .           *.            .            .            .
  9.230E+00 -1.905E-05 .           *.            .            .            .
  9.240E+00 -1.905E-05 .           *.            .            .            .
  9.250E+00 -1.906E-05 .           *.            .            .            .
  9.260E+00 -1.906E-05 .           *.            .            .            .
  9.270E+00 -1.906E-05 .           *.            .            .            .
  9.280E+00 -1.906E-05 .           *.            .            .            .
  9.290E+00 -1.906E-05 .           *.            .            .            .
  9.300E+00 -1.906E-05 .           *.            .            .            .
  9.310E+00 -1.906E-05 .           *.            .            .            .
  9.320E+00 -1.906E-05 .           *.            .            .            .
  9.330E+00 -1.906E-05 .           *.            .            .            .
  9.340E+00 -1.906E-05 .           *.            .            .            .
  9.350E+00 -1.906E-05 .           *.            .            .            .
  9.360E+00 -1.906E-05 .           *.            .            .            .
  9.370E+00 -1.906E-05 .           *.            .            .            .
  9.380E+00 -1.906E-05 .           *.            .            .            .
  9.390E+00 -1.906E-05 .           *.            .            .            .
  9.400E+00 -1.906E-05 .           *.            .            .            .
  9.410E+00 -1.906E-05 .           *.            .            .            .
  9.420E+00 -1.906E-05 .           *.            .            .            .
  9.430E+00 -1.906E-05 .           *.            .            .            .
  9.440E+00 -1.906E-05 .           *.            .            .            .
  9.450E+00 -1.906E-05 .           *.            .            .            .
  9.460E+00 -1.906E-05 .           *.            .            .            .
  9.470E+00 -1.906E-05 .           *.            .            .            .
  9.480E+00 -1.906E-05 .           *.            .            .            .
  9.490E+00 -1.906E-05 .           *.            .            .            .
  9.500E+00 -1.906E-05 .           *.            .            .            .
  9.510E+00 -1.907E-05 .           *.            .            .            .
  9.520E+00 -1.907E-05 .           *.            .            .            .
  9.530E+00 -1.907E-05 .           *.            .            .            .
  9.540E+00 -1.907E-05 .           *.            .            .            .
  9.550E+00 -1.907E-05 .           *.            .            .            .
  9.560E+00 -1.907E-05 .           *.            .            .            .
  9.570E+00 -1.907E-05 .           *.            .            .            .
  9.580E+00 -1.907E-05 .           *.            .            .            .
  9.590E+00 -1.907E-05 .           *.            .            .            .
  9.600E+00 -1.907E-05 .           *.            .            .            .
  9.610E+00 -1.907E-05 .           *.            .            .            .
  9.620E+00 -1.907E-05 .           *.            .            .            .
  9.630E+00 -1.907E-05 .           *.            .            .            .
  9.640E+00 -1.907E-05 .           *.            .            .            .
  9.650E+00 -1.907E-05 .           *.            .            .            .
  9.660E+00 -1.907E-05 .           *.            .            .            .
  9.670E+00 -1.907E-05 .           *.            .            .            .
  9.680E+00 -1.907E-05 .           *.            .            .            .
  9.690E+00 -1.907E-05 .           *.            .            .            .
  9.700E+00 -1.907E-05 .           *.            .            .            .
  9.710E+00 -1.907E-05 .           *.            .            .            .
  9.720E+00 -1.907E-05 .           *.            .            .            .
  9.730E+00 -1.907E-05 .           *.            .            .            .
  9.740E+00 -1.907E-05 .           *.            .            .            .
  9.750E+00 -1.907E-05 .           *.            .            .            .
  9.760E+00 -1.907E-05 .           *.            .            .            .
  9.770E+00 -1.908E-05 .           *.            .            .            .
  9.780E+00 -1.908E-05 .           *.            .            .            .
  9.790E+00 -1.908E-05 .           *.            .            .            .
  9.800E+00 -1.908E-05 .           *.            .            .            .
  9.810E+00 -1.908E-05 .           *.            .            .            .
  9.820E+00 -1.908E-05 .           *.            .            .            .
  9.830E+00 -1.908E-05 .           *.            .            .            .
  9.840E+00 -1.908E-05 .           *.            .            .            .
  9.850E+00 -1.908E-05 .           *.            .            .            .
  9.860E+00 -1.908E-05 .           *.            .            .            .
  9.870E+00 -1.908E-05 .           *.            .            .            .
  9.880E+00 -1.908E-05 .           *.            .            .            .
  9.890E+00 -1.908E-05 .           *.            .            .            .
  9.900E+00 -1.908E-05 .           *.            .            .            .
  9.910E+00 -1.908E-05 .           *.            .            .            .
  9.920E+00 -1.908E-05 .           *.            .            .            .
  9.930E+00 -1.908E-05 .           *.            .            .            .
  9.940E+00 -1.908E-05 .           *.            .            .            .
  9.950E+00 -1.908E-05 .           *.            .            .            .
  9.960E+00 -1.908E-05 .           *.            .            .            .
  9.970E+00 -1.908E-05 .           *.            .            .            .
  9.980E+00 -1.908E-05 .           *.            .            .            .
  9.990E+00 -1.908E-05 .           *.            .            .            .
  1.000E+01 -1.908E-05 .           *.            .            .            .
  1.001E+01 -1.908E-05 .           *.            .            .            .
  1.002E+01 -1.908E-05 .           *.            .            .            .
  1.003E+01 -1.909E-05 .           *.            .            .            .
  1.004E+01 -1.909E-05 .           *.            .            .            .
  1.005E+01 -1.909E-05 .           *.            .            .            .
  1.006E+01 -1.909E-05 .           *.            .            .            .
  1.007E+01 -1.909E-05 .           *.            .            .            .
  1.008E+01 -1.909E-05 .           *.            .            .            .
  1.009E+01 -1.909E-05 .           *.            .            .            .
  1.010E+01 -1.909E-05 .           *.            .            .            .
  1.011E+01 -1.909E-05 .           *.            .            .            .
  1.012E+01 -1.909E-05 .           *.            .            .            .
  1.013E+01 -1.909E-05 .           *.            .            .            .
[...]
  1.272E+01 -1.919E-05 .           *.            .            .            .
  1.273E+01 -1.919E-05 .           *.            .            .            .
  1.274E+01 -1.919E-05 .           *.            .            .            .
  1.275E+01 -1.919E-05 .           *.            .            .            .
  1.276E+01 -1.919E-05 .           *.            .            .            .
  1.277E+01 -1.919E-05 .           *.            .            .            .
  1.278E+01 -1.919E-05 .           *.            .            .            .
  1.279E+01 -1.919E-05 .           *.            .            .            .
  1.280E+01 -1.919E-05 .           *.            .            .            .
  1.281E+01 -1.919E-05 .           *.            .            .            .
  1.282E+01 -1.919E-05 .           *.            .            .            .
  1.283E+01 -1.919E-05 .           *.            .            .            .
  1.284E+01 -1.919E-05 .           *.            .            .            .
  1.285E+01 -1.919E-05 .           *.            .            .            .
  1.286E+01 -1.919E-05 .           *.            .            .            .
  1.287E+01 -1.919E-05 .           *.            .            .            .
  1.288E+01 -1.919E-05 .           *.            .            .            .
  1.289E+01 -1.919E-05 .           *.            .            .            .
  1.290E+01 -1.919E-05 .           *.            .            .            .
  1.291E+01 -1.919E-05 .           *.            .            .            .
  1.292E+01 -1.919E-05 .           *.            .            .            .
  1.293E+01 -1.919E-05 .           *.            .            .            .
  1.294E+01 -1.919E-05 .           *.            .            .            .
  1.295E+01 -1.920E-05 .           *.            .            .            .
  1.296E+01 -1.920E-05 .           *.            .            .            .
  1.297E+01 -1.920E-05 .           *.            .            .            .
  1.298E+01 -1.920E-05 .           *.            .            .            .
  1.299E+01 -1.920E-05 .           *.            .            .            .
  1.300E+01 -1.920E-05 .           *.            .            .            .
  1.301E+01 -1.920E-05 .           *.            .            .            .
  1.302E+01 -1.920E-05 .           *.            .            .            .
  1.303E+01 -1.920E-05 .           *.            .            .            .
  1.304E+01 -1.920E-05 .           *.            .            .            .
  1.305E+01 -1.920E-05 .           *.            .            .            .
  1.306E+01 -1.920E-05 .           *.            .            .            .
  1.307E+01 -1.920E-05 .           *.            .            .            .
  1.308E+01 -1.920E-05 .           *.            .            .            .
  1.309E+01 -1.920E-05 .           *.            .            .            .
  1.310E+01 -1.920E-05 .           *.            .            .            .
  1.311E+01 -1.920E-05 .           *.            .            .            .
  1.312E+01 -1.920E-05 .           *.            .            .            .
  1.313E+01 -1.920E-05 .           *.            .            .            .
  1.314E+01 -1.920E-05 .           *.            .            .            .
  1.315E+01 -1.920E-05 .           *.            .            .            .
  1.316E+01 -1.920E-05 .           *.            .            .            .
  1.317E+01 -1.920E-05 .           *.            .            .            .
  1.318E+01 -1.920E-05 .           *.            .            .            .
  1.319E+01 -1.920E-05 .           *.            .            .            .
  1.320E+01 -1.920E-05 .           *.            .            .            .
  1.321E+01 -1.921E-05 .           *.            .            .            .
  1.322E+01 -1.921E-05 .           *.            .            .            .
  1.323E+01 -1.921E-05 .           *.            .            .            .
  1.324E+01 -1.921E-05 .           *.            .            .            .
  1.325E+01 -1.921E-05 .           *.            .            .            .
  1.326E+01 -1.921E-05 .           *.            .            .            .
  1.327E+01 -1.921E-05 .           *.            .            .            .
  1.328E+01 -1.921E-05 .           *.            .            .            .
  1.329E+01 -1.921E-05 .           *.            .            .            .
  1.330E+01 -1.921E-05 .           *.            .            .            .
  1.331E+01 -1.921E-05 .           *.            .            .            .
  1.332E+01 -1.921E-05 .           *.            .            .            .
  1.333E+01 -1.921E-05 .           *.            .            .            .
  1.334E+01 -1.921E-05 .           *.            .            .            .
  1.335E+01 -1.921E-05 .           *.            .            .            .
  1.336E+01 -1.921E-05 .           *.            .            .            .
  1.337E+01 -1.921E-05 .           *.            .            .            .
  1.338E+01 -1.921E-05 .           *.            .            .            .
  1.339E+01 -1.921E-05 .           *.            .            .            .
  1.340E+01 -1.921E-05 .           *.            .            .            .
  1.341E+01 -1.921E-05 .           *.            .            .            .
  1.342E+01 -1.921E-05 .           *.            .            .            .
  1.343E+01 -1.921E-05 .           *.            .            .            .
  1.344E+01 -1.921E-05 .           *.            .            .            .
  1.345E+01 -1.921E-05 .           *.            .            .            .
  1.346E+01 -1.921E-05 .           *.            .            .            .
  1.347E+01 -1.921E-05 .           *.            .            .            .
  1.348E+01 -1.922E-05 .           *.            .            .            .
  1.349E+01 -1.922E-05 .           *.            .            .            .
  1.350E+01 -1.922E-05 .           *.            .            .            .
  1.351E+01 -1.922E-05 .           *.            .            .            .
  1.352E+01 -1.922E-05 .           *.            .            .            .
  1.353E+01 -1.922E-05 .           *.            .            .            .
  1.354E+01 -1.922E-05 .           *.            .            .            .
  1.355E+01 -1.922E-05 .           *.            .            .            .
  1.356E+01 -1.922E-05 .           *.            .            .            .
  1.357E+01 -1.922E-05 .           *.            .            .            .
  1.358E+01 -1.922E-05 .           *.            .            .            .
  1.359E+01 -1.922E-05 .           *.            .            .            .
  1.360E+01 -1.922E-05 .           *.            .            .            .
  1.361E+01 -1.922E-05 .           *.            .            .            .
  1.362E+01 -1.922E-05 .           *.            .            .            .
  1.363E+01 -1.922E-05 .           *.            .            .            .
  1.364E+01 -1.922E-05 .           *.            .            .            .
  1.365E+01 -1.922E-05 .           *.            .            .            .
  1.366E+01 -1.922E-05 .           *.            .            .            .
  1.367E+01 -1.922E-05 .           *.            .            .            .
  1.368E+01 -1.922E-05 .           *.            .            .            .
  1.369E+01 -1.922E-05 .           *.            .            .            .
  1.370E+01 -1.922E-05 .           *.            .            .            .
  1.371E+01 -1.922E-05 .           *.            .            .            .
  1.372E+01 -1.922E-05 .           *.            .            .            .
  1.373E+01 -1.922E-05 .           *.            .            .            .
  1.374E+01 -1.922E-05 .           *.            .            .            .
  1.375E+01 -1.923E-05 .           *.            .            .            .
  1.376E+01 -1.923E-05 .           *.            .            .            .
  1.377E+01 -1.923E-05 .           *.            .            .            .
  1.378E+01 -1.923E-05 .           *.            .            .            .
  1.379E+01 -1.923E-05 .           *.            .            .            .
  1.380E+01 -1.923E-05 .           *.            .            .            .
  1.381E+01 -1.923E-05 .           *.            .            .            .
  1.382E+01 -1.923E-05 .           *.            .            .            .
  1.383E+01 -1.923E-05 .           *.            .            .            .
  1.384E+01 -1.923E-05 .           *.            .            .            .
  1.385E+01 -1.923E-05 .           *.            .            .            .
  1.386E+01 -1.923E-05 .           *.            .            .            .
  1.387E+01 -1.923E-05 .           *.            .            .            .
  1.388E+01 -1.923E-05 .           *.            .            .            .
  1.389E+01 -1.923E-05 .           *.            .            .            .
  1.390E+01 -1.923E-05 .           *.            .            .            .
  1.391E+01 -1.923E-05 .           *.            .            .            .
  1.392E+01 -1.923E-05 .           *.            .            .            .
  1.393E+01 -1.923E-05 .           *.            .            .            .
  1.394E+01 -1.923E-05 .           *.            .            .            .
  1.395E+01 -1.923E-05 .           *.            .            .            .
  1.396E+01 -1.923E-05 .           *.            .            .            .
  1.397E+01 -1.923E-05 .           *.            .            .            .
  1.398E+01 -1.923E-05 .           *.            .            .            .
  1.399E+01 -1.923E-05 .           *.            .            .            .
  1.400E+01 -1.923E-05 .           *.            .            .            .
  1.401E+01 -1.923E-05 .           *.            .            .            .
  1.402E+01 -1.924E-05 .           *.            .            .            .
  1.403E+01 -1.924E-05 .           *.            .            .            .
  1.404E+01 -1.924E-05 .           *.            .            .            .
  1.405E+01 -1.924E-05 .           *.            .            .            .
  1.406E+01 -1.924E-05 .           *.            .            .            .
  1.407E+01 -1.924E-05 .           *.            .            .            .
  1.408E+01 -1.924E-05 .           *.            .            .            .
  1.409E+01 -1.924E-05 .           *.            .            .            .
  1.410E+01 -1.924E-05 .           *.            .            .            .
  1.411E+01 -1.924E-05 .           *.            .            .            .
  1.412E+01 -1.924E-05 .           *.            .            .            .
  1.413E+01 -1.924E-05 .           *.            .            .            .
  1.414E+01 -1.924E-05 .           *.            .            .            .
  1.415E+01 -1.924E-05 .           *.            .            .            .
  1.416E+01 -1.924E-05 .           *.            .            .            .
  1.417E+01 -1.924E-05 .           *.            .            .            .
  1.418E+01 -1.924E-05 .           *.            .            .            .
  1.419E+01 -1.924E-05 .           *.            .            .            .
  1.420E+01 -1.924E-05 .           *.            .            .            .
  1.421E+01 -1.924E-05 .           *.            .            .            .
  1.422E+01 -1.924E-05 .           *.            .            .            .
  1.423E+01 -1.924E-05 .           *.            .            .            .
  1.424E+01 -1.924E-05 .           *.            .            .            .
  1.425E+01 -1.924E-05 .           *.            .            .            .
  1.426E+01 -1.924E-05 .           *.            .            .            .
  1.427E+01 -1.924E-05 .           *.            .            .            .
  1.428E+01 -1.924E-05 .           *.            .            .            .
  1.429E+01 -1.924E-05 .           *.            .            .            .
  1.430E+01 -1.925E-05 .           *.            .            .            .
  1.431E+01 -1.925E-05 .           *.            .            .            .
  1.432E+01 -1.925E-05 .           *.            .            .            .
  1.433E+01 -1.925E-05 .           *.            .            .            .
  1.434E+01 -1.925E-05 .           *.            .            .            .
  1.435E+01 -1.925E-05 .           *.            .            .            .
  1.436E+01 -1.925E-05 .           *.            .            .            .
  1.437E+01 -1.925E-05 .           *.            .            .            .
  1.438E+01 -1.925E-05 .           *.            .            .            .
  1.439E+01 -1.925E-05 .           *.            .            .            .
  1.440E+01 -1.925E-05 .           *.            .            .            .
  1.441E+01 -1.925E-05 .           *.            .            .            .
  1.442E+01 -1.925E-05 .           *.            .            .            .
  1.443E+01 -1.925E-05 .           *.            .            .            .
  1.444E+01 -1.925E-05 .           *.            .            .            .
  1.445E+01 -1.925E-05 .           *.            .            .            .
  1.446E+01 -1.925E-05 .           *.            .            .            .
  1.447E+01 -1.925E-05 .           *.            .            .            .
  1.448E+01 -1.925E-05 .           *.            .            .            .
  1.449E+01 -1.925E-05 .           *.            .            .            .
  1.450E+01 -1.925E-05 .           *.            .            .            .
  1.451E+01 -1.925E-05 .           *.            .            .            .
  1.452E+01 -1.925E-05 .           *.            .            .            .
  1.453E+01 -1.925E-05 .           *.            .            .            .
  1.454E+01 -1.925E-05 .           *.            .            .            .
  1.455E+01 -1.925E-05 .           *.            .            .            .
  1.456E+01 -1.925E-05 .           *.            .            .            .
  1.457E+01 -1.926E-05 .           *.            .            .            .
  1.458E+01 -1.926E-05 .           *.            .            .            .
  1.459E+01 -1.926E-05 .           *.            .            .            .
  1.460E+01 -1.926E-05 .           *.            .            .            .
  1.461E+01 -1.926E-05 .           *.            .            .            .
  1.462E+01 -1.926E-05 .           *.            .            .            .
  1.463E+01 -1.926E-05 .           *.            .            .            .
  1.464E+01 -1.926E-05 .           *.            .            .            .
  1.465E+01 -1.926E-05 .           *.            .            .            .
  1.466E+01 -1.926E-05 .           *.            .            .            .
  1.467E+01 -1.926E-05 .           *.            .            .            .
  1.468E+01 -1.926E-05 .           *.            .            .            .
  1.469E+01 -1.926E-05 .           *.            .            .            .
  1.470E+01 -1.926E-05 .           *.            .            .            .
  1.471E+01 -1.926E-05 .           *.            .            .            .
  1.472E+01 -1.926E-05 .           *.            .            .            .
  1.473E+01 -1.926E-05 .           *.            .            .            .
  1.474E+01 -1.926E-05 .           *.            .            .            .
  1.475E+01 -1.926E-05 .           *.            .            .            .
  1.476E+01 -1.926E-05 .           *.            .            .            .
  1.477E+01 -1.926E-05 .           *.            .            .            .
  1.478E+01 -1.926E-05 .           *.            .            .            .
  1.479E+01 -1.926E-05 .           *.            .            .            .
  1.480E+01 -1.926E-05 .           *.            .            .            .
  1.481E+01 -1.926E-05 .           *.            .            .            .
  1.482E+01 -1.926E-05 .           *.            .            .            .
  1.483E+01 -1.926E-05 .           *.            .            .            .
  1.484E+01 -1.927E-05 .           *.            .            .            .
  1.485E+01 -1.927E-05 .           *.            .            .            .
  1.486E+01 -1.927E-05 .           *.            .            .            .
  1.487E+01 -1.927E-05 .           *.            .            .            .
  1.488E+01 -1.927E-05 .           *.            .            .            .
  1.489E+01 -1.927E-05 .           *.            .            .            .
  1.490E+01 -1.927E-05 .           *.            .            .            .
  1.491E+01 -1.927E-05 .           *.            .            .            .
  1.492E+01 -1.927E-05 .           *.            .            .            .
  1.493E+01 -1.927E-05 .           *.            .            .            .
  1.494E+01 -1.927E-05 .           *.            .            .            .
  1.495E+01 -1.927E-05 .           *.            .            .            .
  1.496E+01 -1.927E-05 .           *.            .            .            .
  1.497E+01 -1.927E-05 .           *.            .            .            .
  1.498E+01 -1.927E-05 .           *.            .            .            .
  1.499E+01 -1.927E-05 .           *.            .            .            .
  1.500E+01 -1.927E-05 .           *.            .            .            .
                       - - - - - - - - - - - - - - - - - - - - - - - - - - - 



**** 04/08/21 14:26:07 ******* PSpice Lite (March 2016) ******* ID# 10813 ****

 * circuit description *


 ****     SMALL SIGNAL BIAS SOLUTION       TEMPERATURE =   27.000 DEG C


******************************************************************************



 NODE   VOLTAGE     NODE   VOLTAGE     NODE   VOLTAGE     NODE   VOLTAGE


(    1)   15.0000  (    2)     .6910  (    3)    5.0000  (    4)     .0953  




    VOLTAGE SOURCE CURRENTS
    NAME         CURRENT

    Vcc         -7.300E-04
    Vo          -1.889E-05

    TOTAL POWER DISSIPATION   1.10E-02  WATTS


**** 04/08/21 14:26:07 ******* PSpice Lite (March 2016) ******* ID# 10813 ****

 * circuit description *


 ****     OPERATING POINT INFORMATION      TEMPERATURE =   27.000 DEG C


******************************************************************************






**** BIPOLAR JUNCTION TRANSISTORS


NAME         Q1                      Q2                    
MODEL        npn_transistor          npn_transistor        
IB           7.23E-06                1.81E-07             
IC           7.23E-04                1.89E-05             
VBE          6.91E-01                5.96E-01             
VBC          0.00E+00               -4.31E+00             
VCE          6.91E-01                4.90E+00             
BETADC       1.00E+02                1.04E+02             
GM           2.79E-02                7.30E-04             
RPI          3.58E+03                1.43E+05             
RX           0.00E+00                0.00E+00             
RO           1.38E+05                5.52E+06             
CBE          0.00E+00                0.00E+00             
CBC          0.00E+00                0.00E+00             
CJS          0.00E+00                0.00E+00             
BETAAC       1.00E+02                1.04E+02             
CBX/CBX2     0.00E+00                0.00E+00             
FT/FT2       4.45E+17                1.16E+16             



          JOB CONCLUDED

**** 04/08/21 14:26:07 ******* PSpice Lite (March 2016) ******* ID# 10813 ****

 * circuit description *


 ****     JOB STATISTICS SUMMARY


******************************************************************************



  Total job time (using Solver 1)   =         .31
