
**** 04/08/21 15:25:52 ******* PSpice Lite (March 2016) ******* ID# 10813 ****

  


 ****     CIRCUIT DESCRIPTION


******************************************************************************



*r1 1 2 11.81272234k
i1 1 2 dc 1m
vdd 1 0 dc 15
vo 4 0 dc 5
M1 3 5 0 0 e_mos L=10u W=100u
M2 5 5 0 0 e_mos L=10u W=100u
M3 2 2 3 3 e_mos L=10u W=100u
M4 4 2 5 5 e_mos L=10u W=100u
.model e_mos nmos (KP=20u Vto=1V lambda=0.02)
.op
.dc vo 0 15 0.05
.probe
.end

**** 04/08/21 15:25:52 ******* PSpice Lite (March 2016) ******* ID# 10813 ****

  


 ****     MOSFET MODEL PARAMETERS


******************************************************************************




               e_mos           
               NMOS            
       LEVEL    1            
           L  100.000000E-06 
           W  100.000000E-06 
         VTO    1            
          KP   20.000000E-06 
       GAMMA    0            
         PHI     .6          
      LAMBDA     .02         
          IS   10.000000E-15 
          JS    0            
          PB     .8          
        PBSW     .8          
          CJ    0            
        CJSW    0            
        CGSO    0            
        CGDO    0            
        CGBO    0            
         TOX    0            
          XJ    0            
       UCRIT   10.000000E+03 
      DIOMOD    1            
         VFB    0            
        LETA    0            
        WETA    0            
          U0    0            
        TEMP    0            
         VDD    5            
       XPART    0            


ERROR -- Convergence problem in DC sweep


  Last node voltages tried were:

 NODE   VOLTAGE     NODE   VOLTAGE     NODE   VOLTAGE     NODE   VOLTAGE


(    1)    6.9510  (    2) 81.92E+06  (    3) 81.92E+06  (    4)     .4866      

(    5)     .4866  


  These devices failed to converge:
    M4        

**** Interrupt ****
