
**** 03/25/21 20:15:19 ******* PSpice Lite (March 2016) ******* ID# 10813 ****

  


 ****     CIRCUIT DESCRIPTION


******************************************************************************



*r1 1 2 11.81272234k
i1 1 2 dc 1m
vdd 1 0 dc 15
vo 3 0 dc 5
M1 3 3 0 0 e_mos L=5u W=50u
M2 5 3 0 0 e_mos L=5u W=50u
M3 2 2 3 0 e_mos L=5u W=50u
M4 4 2 5 0 e_mos L=5u W=50u
.model e_mos nmos (KP=20u Vto=2V lambda=0.02)

.dc vo 0 15 0.01
.probe
.end

ERROR(ORPSIM-15141): Less than 2 connections at node 4.
