
**** 04/26/22 19:55:23 ******* PSpice Lite (March 2016) ******* ID# 10813 ****

 Forward Characteristics of a 1mA Diode


 ****     CIRCUIT DESCRIPTION


******************************************************************************



*circuit description*
VD 1 0 DC 700mV
*diode model statement*
D1 1 0 1mA_diode
.model 1mA_diode D (Is=0.01pA n=1.0675)
*analysis requests*
.DC VD 0V 800mV 200uV
.PLOT DC I(VD)
.probe
.end

**** 04/26/22 19:55:23 ******* PSpice Lite (March 2016) ******* ID# 10813 ****

 Forward Characteristics of a 1mA Diode


 ****     Diode MODEL PARAMETERS


******************************************************************************




               1mA_diode       
          IS   10.000000E-15 
           N    1.0675       


**** 04/26/22 19:55:23 ******* PSpice Lite (March 2016) ******* ID# 10813 ****

 Forward Characteristics of a 1mA Diode


 ****     DC TRANSFER CURVES               TEMPERATURE =   27.000 DEG C


******************************************************************************



  VD          I(VD)       
(*)----------   -4.0000E-02  -3.0000E-02  -2.0000E-02  -1.0000E-02   0.0000E+00
                       _ _ _ _ _ _ _ _ _ _ _ _ _ _ _ _ _ _ _ _ _ _ _ _ _ _ _
  0.000E+00  0.000E+00 .            .            .            .            *
  2.000E-04 -2.727E-16 .            .            .            .            *
  4.000E-04 -5.459E-16 .            .            .            .            *
  6.000E-04 -8.197E-16 .            .            .            .            *
  8.000E-04 -1.094E-15 .            .            .            .            *
  1.000E-03 -1.369E-15 .            .            .            .            *
  1.200E-03 -1.644E-15 .            .            .            .            *
  1.400E-03 -1.920E-15 .            .            .            .            *
  1.600E-03 -2.197E-15 .            .            .            .            *
  1.800E-03 -2.474E-15 .            .            .            .            *
  2.000E-03 -2.751E-15 .            .            .            .            *
  2.200E-03 -3.029E-15 .            .            .            .            *
  2.400E-03 -3.308E-15 .            .            .            .            *
  2.600E-03 -3.587E-15 .            .            .            .            *
  2.800E-03 -3.867E-15 .            .            .            .            *
  3.000E-03 -4.148E-15 .            .            .            .            *
  3.200E-03 -4.429E-15 .            .            .            .            *
  3.400E-03 -4.710E-15 .            .            .            .            *
  3.600E-03 -4.993E-15 .            .            .            .            *
  3.800E-03 -5.276E-15 .            .            .            .            *
  4.000E-03 -5.559E-15 .            .            .            .            *
  4.200E-03 -5.843E-15 .            .            .            .            *
  4.400E-03 -6.128E-15 .            .            .            .            *
  4.600E-03 -6.413E-15 .            .            .            .            *
  4.800E-03 -6.699E-15 .            .            .            .            *
  5.000E-03 -6.985E-15 .            .            .            .            *
  5.200E-03 -7.272E-15 .            .            .            .            *
  5.400E-03 -7.560E-15 .            .            .            .            *
  5.600E-03 -7.849E-15 .            .            .            .            *
  5.800E-03 -8.138E-15 .            .            .            .            *
  6.000E-03 -8.427E-15 .            .            .            .            *
  6.200E-03 -8.718E-15 .            .            .            .            *
  6.400E-03 -9.009E-15 .            .            .            .            *
  6.600E-03 -9.300E-15 .            .            .            .            *
  6.800E-03 -9.593E-15 .            .            .            .            *
  7.000E-03 -9.886E-15 .            .            .            .            *
  7.200E-03 -1.018E-14 .            .            .            .            *
  7.400E-03 -1.047E-14 .            .            .            .            *
  7.600E-03 -1.077E-14 .            .            .            .            *
  7.800E-03 -1.106E-14 .            .            .            .            *
  8.000E-03 -1.136E-14 .            .            .            .            *
  8.200E-03 -1.166E-14 .            .            .            .            *
  8.400E-03 -1.196E-14 .            .            .            .            *
  8.600E-03 -1.225E-14 .            .            .            .            *
  8.800E-03 -1.255E-14 .            .            .            .            *
  9.000E-03 -1.285E-14 .            .            .            .            *
  9.200E-03 -1.315E-14 .            .            .            .            *
  9.400E-03 -1.346E-14 .            .            .            .            *
  9.600E-03 -1.376E-14 .            .            .            .            *
  9.800E-03 -1.406E-14 .            .            .            .            *
  1.000E-02 -1.436E-14 .            .            .            .            *
  1.020E-02 -1.467E-14 .            .            .            .            *
  1.040E-02 -1.497E-14 .            .            .            .            *
  1.060E-02 -1.528E-14 .            .            .            .            *
  1.080E-02 -1.559E-14 .            .            .            .            *
  1.100E-02 -1.589E-14 .            .            .            .            *
  1.120E-02 -1.620E-14 .            .            .            .            *
  1.140E-02 -1.651E-14 .            .            .            .            *
  1.160E-02 -1.682E-14 .            .            .            .            *
  1.180E-02 -1.713E-14 .            .            .            .            *
  1.200E-02 -1.744E-14 .            .            .            .            *
  1.220E-02 -1.776E-14 .            .            .            .            *
  1.240E-02 -1.807E-14 .            .            .            .            *
  1.260E-02 -1.838E-14 .            .            .            .            *
  1.280E-02 -1.870E-14 .            .            .            .            *
  1.300E-02 -1.901E-14 .            .            .            .            *
  1.320E-02 -1.933E-14 .            .            .            .            *
  1.340E-02 -1.965E-14 .            .            .            .            *
  1.360E-02 -1.997E-14 .            .            .            .            *
  1.380E-02 -2.028E-14 .            .            .            .            *
  1.400E-02 -2.060E-14 .            .            .            .            *
  1.420E-02 -2.092E-14 .            .            .            .            *
  1.440E-02 -2.125E-14 .            .            .            .            *
  1.460E-02 -2.157E-14 .            .            .            .            *
  1.480E-02 -2.189E-14 .            .            .            .            *
  1.500E-02 -2.222E-14 .            .            .            .            *
  1.520E-02 -2.254E-14 .            .            .            .            *
  1.540E-02 -2.287E-14 .            .            .            .            *
  1.560E-02 -2.319E-14 .            .            .            .            *
  1.580E-02 -2.352E-14 .            .            .            .            *
  1.600E-02 -2.385E-14 .            .            .            .            *
  1.620E-02 -2.418E-14 .            .            .            .            *
  1.640E-02 -2.451E-14 .            .            .            .            *
  1.660E-02 -2.484E-14 .            .            .            .            *
  1.680E-02 -2.518E-14 .            .            .            .            *
  1.700E-02 -2.551E-14 .            .            .            .            *
  1.720E-02 -2.584E-14 .            .            .            .            *
  1.740E-02 -2.618E-14 .            .            .            .            *
  1.760E-02 -2.652E-14 .            .            .            .            *
  1.780E-02 -2.685E-14 .            .            .            .            *
  1.800E-02 -2.719E-14 .            .            .            .            *
  1.820E-02 -2.753E-14 .            .            .            .            *
  1.840E-02 -2.787E-14 .            .            .            .            *
  1.860E-02 -2.821E-14 .            .            .            .            *
  1.880E-02 -2.856E-14 .            .            .            .            *
  1.900E-02 -2.890E-14 .            .            .            .            *
  1.920E-02 -2.925E-14 .            .            .            .            *
  1.940E-02 -2.959E-14 .            .            .            .            *
  1.960E-02 -2.994E-14 .            .            .            .            *
  1.980E-02 -3.029E-14 .            .            .            .            *
  2.000E-02 -3.063E-14 .            .            .            .            *
  2.020E-02 -3.098E-14 .            .            .            .            *
  2.040E-02 -3.134E-14 .            .            .            .            *
  2.060E-02 -3.169E-14 .            .            .            .            *
  2.080E-02 -3.204E-14 .            .            .            .            *
  2.100E-02 -3.240E-14 .            .            .            .            *
  2.120E-02 -3.275E-14 .            .            .            .            *
  2.140E-02 -3.311E-14 .            .            .            .            *
  2.160E-02 -3.347E-14 .            .            .            .            *
  2.180E-02 -3.382E-14 .            .            .            .            *
  2.200E-02 -3.418E-14 .            .            .            .            *
  2.220E-02 -3.455E-14 .            .            .            .            *
  2.240E-02 -3.491E-14 .            .            .            .            *
  2.260E-02 -3.527E-14 .            .            .            .            *
  2.280E-02 -3.564E-14 .            .            .            .            *
  2.300E-02 -3.600E-14 .            .            .            .            *
  2.320E-02 -3.637E-14 .            .            .            .            *
  2.340E-02 -3.674E-14 .            .            .            .            *
  2.360E-02 -3.711E-14 .            .            .            .            *
  2.380E-02 -3.748E-14 .            .            .            .            *
  2.400E-02 -3.785E-14 .            .            .            .            *
  2.420E-02 -3.822E-14 .            .            .            .            *
  2.440E-02 -3.860E-14 .            .            .            .            *
  2.460E-02 -3.898E-14 .            .            .            .            *
  2.480E-02 -3.935E-14 .            .            .            .            *
  2.500E-02 -3.973E-14 .            .            .            .            *
  2.520E-02 -4.011E-14 .            .            .            .            *
  2.540E-02 -4.049E-14 .            .            .            .            *
  2.560E-02 -4.087E-14 .            .            .            .            *
  2.580E-02 -4.126E-14 .            .            .            .            *
  2.600E-02 -4.164E-14 .            .            .            .            *
  2.620E-02 -4.203E-14 .            .            .            .            *
  2.640E-02 -4.242E-14 .            .            .            .            *
  2.660E-02 -4.281E-14 .            .            .            .            *
  2.680E-02 -4.320E-14 .            .            .            .            *
  2.700E-02 -4.359E-14 .            .            .            .            *
  2.720E-02 -4.398E-14 .            .            .            .            *
  2.740E-02 -4.438E-14 .            .            .            .            *
  2.760E-02 -4.477E-14 .            .            .            .            *
  2.780E-02 -4.517E-14 .            .            .            .            *
  2.800E-02 -4.557E-14 .            .            .            .            *
  2.820E-02 -4.597E-14 .            .            .            .            *
  2.840E-02 -4.637E-14 .            .            .            .            *
  2.860E-02 -4.678E-14 .            .            .            .            *
  2.880E-02 -4.718E-14 .            .            .            .            *
  2.900E-02 -4.759E-14 .            .            .            .            *
  2.920E-02 -4.799E-14 .            .            .            .            *
  2.940E-02 -4.840E-14 .            .            .            .            *
  2.960E-02 -4.881E-14 .            .            .            .            *
  2.980E-02 -4.923E-14 .            .            .            .            *
  3.000E-02 -4.964E-14 .            .            .            .            *
  3.020E-02 -5.006E-14 .            .            .            .            *
  3.040E-02 -5.047E-14 .            .            .            .            *
  3.060E-02 -5.089E-14 .            .            .            .            *
  3.080E-02 -5.131E-14 .            .            .            .            *
  3.100E-02 -5.173E-14 .            .            .            .            *
  3.120E-02 -5.216E-14 .            .            .            .            *
  3.140E-02 -5.258E-14 .            .            .            .            *
  3.160E-02 -5.301E-14 .            .            .            .            *
  3.180E-02 -5.344E-14 .            .            .            .            *
  3.200E-02 -5.387E-14 .            .            .            .            *
  3.220E-02 -5.430E-14 .            .            .            .            *
  3.240E-02 -5.473E-14 .            .            .            .            *
  3.260E-02 -5.517E-14 .            .            .            .            *
  3.280E-02 -5.560E-14 .            .            .            .            *
  3.300E-02 -5.604E-14 .            .            .            .            *
  3.320E-02 -5.648E-14 .            .            .            .            *
  3.340E-02 -5.693E-14 .            .            .            .            *
  3.360E-02 -5.737E-14 .            .            .            .            *
  3.380E-02 -5.781E-14 .            .            .            .            *
  3.400E-02 -5.826E-14 .            .            .            .            *
  3.420E-02 -5.871E-14 .            .            .            .            *
  3.440E-02 -5.916E-14 .            .            .            .            *
  3.460E-02 -5.961E-14 .            .            .            .            *
  3.480E-02 -6.007E-14 .            .            .            .            *
  3.500E-02 -6.053E-14 .            .            .            .            *
  3.520E-02 -6.098E-14 .            .            .            .            *
  3.540E-02 -6.144E-14 .            .            .            .            *
  3.560E-02 -6.191E-14 .            .            .            .            *
  3.580E-02 -6.237E-14 .            .            .            .            *
  3.600E-02 -6.284E-14 .            .            .            .            *
  3.620E-02 -6.330E-14 .            .            .            .            *
  3.640E-02 -6.377E-14 .            .            .            .            *
  3.660E-02 -6.424E-14 .            .            .            .            *
  3.680E-02 -6.472E-14 .            .            .            .            *
  3.700E-02 -6.519E-14 .            .            .            .            *
  3.720E-02 -6.567E-14 .            .            .            .            *
  3.740E-02 -6.615E-14 .            .            .            .            *
  3.760E-02 -6.663E-14 .            .            .            .            *
  3.780E-02 -6.712E-14 .            .            .            .            *
  3.800E-02 -6.760E-14 .            .            .            .            *
  3.820E-02 -6.809E-14 .            .            .            .            *
  3.840E-02 -6.858E-14 .            .            .            .            *
  3.860E-02 -6.907E-14 .            .            .            .            *
  3.880E-02 -6.957E-14 .            .            .            .            *
  3.900E-02 -7.006E-14 .            .            .            .            *
  3.920E-02 -7.056E-14 .            .            .            .            *
  3.940E-02 -7.106E-14 .            .            .            .            *
  3.960E-02 -7.157E-14 .            .            .            .            *
  3.980E-02 -7.207E-14 .            .            .            .            *
  4.000E-02 -7.258E-14 .            .            .            .            *
  4.020E-02 -7.309E-14 .            .            .            .            *
  4.040E-02 -7.360E-14 .            .            .            .            *
  4.060E-02 -7.411E-14 .            .            .            .            *
  4.080E-02 -7.463E-14 .            .            .            .            *
  4.100E-02 -7.515E-14 .            .            .            .            *
  4.120E-02 -7.567E-14 .            .            .            .            *
  4.140E-02 -7.619E-14 .            .            .            .            *
  4.160E-02 -7.672E-14 .            .            .            .            *
  4.180E-02 -7.725E-14 .            .            .            .            *
  4.200E-02 -7.778E-14 .            .            .            .            *
  4.220E-02 -7.831E-14 .            .            .            .            *
  4.240E-02 -7.884E-14 .            .            .            .            *
  4.260E-02 -7.938E-14 .            .            .            .            *
  4.280E-02 -7.992E-14 .            .            .            .            *
  4.300E-02 -8.046E-14 .            .            .            .            *
  4.320E-02 -8.101E-14 .            .            .            .            *
  4.340E-02 -8.156E-14 .            .            .            .            *
  4.360E-02 -8.211E-14 .            .            .            .            *
  4.380E-02 -8.266E-14 .            .            .            .            *
  4.400E-02 -8.322E-14 .            .            .            .            *
  4.420E-02 -8.377E-14 .            .            .            .            *
  4.440E-02 -8.433E-14 .            .            .            .            *
  4.460E-02 -8.490E-14 .            .            .            .            *
  4.480E-02 -8.546E-14 .            .            .            .            *
  4.500E-02 -8.603E-14 .            .            .            .            *
  4.520E-02 -8.660E-14 .            .            .            .            *
  4.540E-02 -8.718E-14 .            .            .            .            *
  4.560E-02 -8.775E-14 .            .            .            .            *
  4.580E-02 -8.833E-14 .            .            .            .            *
  4.600E-02 -8.891E-14 .            .            .            .            *
  4.620E-02 -8.950E-14 .            .            .            .            *
  4.640E-02 -9.009E-14 .            .            .            .            *
  4.660E-02 -9.068E-14 .            .            .            .            *
  4.680E-02 -9.127E-14 .            .            .            .            *
  4.700E-02 -9.186E-14 .            .            .            .            *
  4.720E-02 -9.246E-14 .            .            .            .            *
  4.740E-02 -9.307E-14 .            .            .            .            *
  4.760E-02 -9.367E-14 .            .            .            .            *
  4.780E-02 -9.428E-14 .            .            .            .            *
  4.800E-02 -9.489E-14 .            .            .            .            *
  4.820E-02 -9.550E-14 .            .            .            .            *
  4.840E-02 -9.612E-14 .            .            .            .            *
  4.860E-02 -9.674E-14 .            .            .            .            *
  4.880E-02 -9.736E-14 .            .            .            .            *
  4.900E-02 -9.799E-14 .            .            .            .            *
  4.920E-02 -9.862E-14 .            .            .            .            *
  4.940E-02 -9.925E-14 .            .            .            .            *
  4.960E-02 -9.988E-14 .            .            .            .            *
  4.980E-02 -1.005E-13 .            .            .            .            *
  5.000E-02 -1.012E-13 .            .            .            .            *
  5.020E-02 -1.018E-13 .            .            .            .            *
  5.040E-02 -1.025E-13 .            .            .            .            *
  5.060E-02 -1.031E-13 .            .            .            .            *
  5.080E-02 -1.038E-13 .            .            .            .            *
  5.100E-02 -1.044E-13 .            .            .            .            *
  5.120E-02 -1.051E-13 .            .            .            .            *
  5.140E-02 -1.057E-13 .            .            .            .            *
  5.160E-02 -1.064E-13 .            .            .            .            *
  5.180E-02 -1.071E-13 .            .            .            .            *
  5.200E-02 -1.078E-13 .            .            .            .            *
  5.220E-02 -1.084E-13 .            .            .            .            *
  5.240E-02 -1.091E-13 .            .            .            .            *
  5.260E-02 -1.098E-13 .            .            .            .            *
  5.280E-02 -1.105E-13 .            .            .            .            *
  5.300E-02 -1.112E-13 .            .            .            .            *
  5.320E-02 -1.119E-13 .            .            .            .            *
  5.340E-02 -1.126E-13 .            .            .            .            *
  5.360E-02 -1.133E-13 .            .            .            .            *
  5.380E-02 -1.140E-13 .            .            .            .            *
  5.400E-02 -1.147E-13 .            .            .            .            *
  5.420E-02 -1.154E-13 .            .            .            .            *
  5.440E-02 -1.161E-13 .            .            .            .            *
  5.460E-02 -1.169E-13 .            .            .            .            *
  5.480E-02 -1.176E-13 .            .            .            .            *
  5.500E-02 -1.183E-13 .            .            .            .            *
  5.520E-02 -1.190E-13 .            .            .            .            *
  5.540E-02 -1.198E-13 .            .            .            .            *
  5.560E-02 -1.205E-13 .            .            .            .            *
  5.580E-02 -1.213E-13 .            .            .            .            *
  5.600E-02 -1.220E-13 .            .            .            .            *
  5.620E-02 -1.228E-13 .            .            .            .            *
  5.640E-02 -1.235E-13 .            .            .            .            *
  5.660E-02 -1.243E-13 .            .            .            .            *
  5.680E-02 -1.250E-13 .            .            .            .            *
  5.700E-02 -1.258E-13 .            .            .            .            *
  5.720E-02 -1.266E-13 .            .            .            .            *
  5.740E-02 -1.274E-13 .            .            .            .            *
  5.760E-02 -1.281E-13 .            .            .            .            *
  5.780E-02 -1.289E-13 .            .            .            .            *
  5.800E-02 -1.297E-13 .            .            .            .            *
  5.820E-02 -1.305E-13 .            .            .            .            *
  5.840E-02 -1.313E-13 .            .            .            .            *
  5.860E-02 -1.321E-13 .            .            .            .            *
  5.880E-02 -1.329E-13 .            .            .            .            *
  5.900E-02 -1.337E-13 .            .            .            .            *
  5.920E-02 -1.345E-13 .            .            .            .            *
  5.940E-02 -1.354E-13 .            .            .            .            *
  5.960E-02 -1.362E-13 .            .            .            .            *
  5.980E-02 -1.370E-13 .            .            .            .            *
  6.000E-02 -1.379E-13 .            .            .            .            *
  6.020E-02 -1.387E-13 .            .            .            .            *
  6.040E-02 -1.395E-13 .            .            .            .            *
  6.060E-02 -1.404E-13 .            .            .            .            *
  6.080E-02 -1.412E-13 .            .            .            .            *
  6.100E-02 -1.421E-13 .            .            .            .            *
  6.120E-02 -1.430E-13 .            .            .            .            *
  6.140E-02 -1.438E-13 .            .            .            .            *
  6.160E-02 -1.447E-13 .            .            .            .            *
  6.180E-02 -1.456E-13 .            .            .            .            *
  6.200E-02 -1.465E-13 .            .            .            .            *
  6.220E-02 -1.473E-13 .            .            .            .            *
  6.240E-02 -1.482E-13 .            .            .            .            *
  6.260E-02 -1.491E-13 .            .            .            .            *
  6.280E-02 -1.500E-13 .            .            .            .            *
  6.300E-02 -1.509E-13 .            .            .            .            *
  6.320E-02 -1.519E-13 .            .            .            .            *
  6.340E-02 -1.528E-13 .            .            .            .            *
  6.360E-02 -1.537E-13 .            .            .            .            *
  6.380E-02 -1.546E-13 .            .            .            .            *
  6.400E-02 -1.556E-13 .            .            .            .            *
  6.420E-02 -1.565E-13 .            .            .            .            *
  6.440E-02 -1.574E-13 .            .            .            .            *
  6.460E-02 -1.584E-13 .            .            .            .            *
  6.480E-02 -1.593E-13 .            .            .            .            *
  6.500E-02 -1.603E-13 .            .            .            .            *
  6.520E-02 -1.613E-13 .            .            .            .            *
  6.540E-02 -1.622E-13 .            .            .            .            *
  6.560E-02 -1.632E-13 .            .            .            .            *
  6.580E-02 -1.642E-13 .            .            .            .            *
  6.600E-02 -1.652E-13 .            .            .            .            *
  6.620E-02 -1.662E-13 .            .            .            .            *
  6.640E-02 -1.672E-13 .            .            .            .            *
  6.660E-02 -1.682E-13 .            .            .            .            *
  6.680E-02 -1.692E-13 .            .            .            .            *
  6.700E-02 -1.702E-13 .            .            .            .            *
  6.720E-02 -1.712E-13 .            .            .            .            *
  6.740E-02 -1.723E-13 .            .            .            .            *
  6.760E-02 -1.733E-13 .            .            .            .            *
  6.780E-02 -1.743E-13 .            .            .            .            *
  6.800E-02 -1.754E-13 .            .            .            .            *
  6.820E-02 -1.764E-13 .            .            .            .            *
  6.840E-02 -1.775E-13 .            .            .            .            *
  6.860E-02 -1.786E-13 .            .            .            .            *
  6.880E-02 -1.796E-13 .            .            .            .            *
  6.900E-02 -1.807E-13 .            .            .            .            *
  6.920E-02 -1.818E-13 .            .            .            .            *
  6.940E-02 -1.829E-13 .            .            .            .            *
  6.960E-02 -1.840E-13 .            .            .            .            *
  6.980E-02 -1.851E-13 .            .            .            .            *
  7.000E-02 -1.862E-13 .            .            .            .            *
  7.020E-02 -1.873E-13 .            .            .            .            *
  7.040E-02 -1.884E-13 .            .            .            .            *
  7.060E-02 -1.896E-13 .            .            .            .            *
  7.080E-02 -1.907E-13 .            .            .            .            *
  7.100E-02 -1.919E-13 .            .            .            .            *
  7.120E-02 -1.930E-13 .            .            .            .            *
  7.140E-02 -1.942E-13 .            .            .            .            *
  7.160E-02 -1.953E-13 .            .            .            .            *
  7.180E-02 -1.965E-13 .            .            .            .            *
  7.200E-02 -1.977E-13 .            .            .            .            *
  7.220E-02 -1.989E-13 .            .            .            .            *
  7.240E-02 -2.001E-13 .            .            .            .            *
  7.260E-02 -2.013E-13 .            .            .            .            *
  7.280E-02 -2.025E-13 .            .            .            .            *
  7.300E-02 -2.037E-13 .            .            .            .            *
  7.320E-02 -2.049E-13 .            .            .            .            *
  7.340E-02 -2.061E-13 .            .            .            .            *
  7.360E-02 -2.074E-13 .            .            .            .            *
  7.380E-02 -2.086E-13 .            .            .            .            *
  7.400E-02 -2.099E-13 .            .            .            .            *
  7.420E-02 -2.111E-13 .            .            .            .            *
  7.440E-02 -2.124E-13 .            .            .            .            *
  7.460E-02 -2.137E-13 .            .            .            .            *
  7.480E-02 -2.150E-13 .            .            .            .            *
  7.500E-02 -2.163E-13 .            .            .            .            *
  7.520E-02 -2.176E-13 .            .            .            .            *
  7.540E-02 -2.189E-13 .            .            .            .            *
  7.560E-02 -2.202E-13 .            .            .            .            *
  7.580E-02 -2.215E-13 .            .            .            .            *
  7.600E-02 -2.228E-13 .            .            .            .            *
  7.620E-02 -2.242E-13 .            .            .            .            *
  7.640E-02 -2.255E-13 .            .            .            .            *
  7.660E-02 -2.269E-13 .            .            .            .            *
  7.680E-02 -2.282E-13 .            .            .            .            *
  7.700E-02 -2.296E-13 .            .            .            .            *
  7.720E-02 -2.310E-13 .            .            .            .            *
  7.740E-02 -2.324E-13 .            .            .            .            *
  7.760E-02 -2.338E-13 .            .            .            .            *
  7.780E-02 -2.352E-13 .            .            .            .            *
  7.800E-02 -2.366E-13 .            .            .            .            *
  7.820E-02 -2.380E-13 .            .            .            .            *
  7.840E-02 -2.395E-13 .            .            .            .            *
  7.860E-02 -2.409E-13 .            .            .            .            *
  7.880E-02 -2.424E-13 .            .            .            .            *
  7.900E-02 -2.438E-13 .            .            .            .            *
  7.920E-02 -2.453E-13 .            .            .            .            *
  7.940E-02 -2.468E-13 .            .            .            .            *
  7.960E-02 -2.483E-13 .            .            .            .            *
  7.980E-02 -2.498E-13 .            .            .            .            *
  8.000E-02 -2.513E-13 .            .            .            .            *
  8.020E-02 -2.528E-13 .            .            .            .            *
  8.040E-02 -2.543E-13 .            .            .            .            *
  8.060E-02 -2.559E-13 .            .            .            .            *
  8.080E-02 -2.574E-13 .            .            .            .            *
  8.100E-02 -2.590E-13 .            .            .            .            *
  8.120E-02 -2.605E-13 .            .            .            .            *
  8.140E-02 -2.621E-13 .            .            .            .            *
  8.160E-02 -2.637E-13 .            .            .            .            *
  8.180E-02 -2.653E-13 .            .            .            .            *
  8.200E-02 -2.669E-13 .            .            .            .            *
  8.220E-02 -2.685E-13 .            .            .            .            *
  8.240E-02 -2.702E-13 .            .            .            .            *
  8.260E-02 -2.718E-13 .            .            .            .            *
  8.280E-02 -2.734E-13 .            .            .            .            *
  8.300E-02 -2.751E-13 .            .            .            .            *
  8.320E-02 -2.768E-13 .            .            .            .            *
  8.340E-02 -2.784E-13 .            .            .            .            *
  8.360E-02 -2.801E-13 .            .            .            .            *
  8.380E-02 -2.818E-13 .            .            .            .            *
  8.400E-02 -2.835E-13 .            .            .            .            *
  8.420E-02 -2.853E-13 .            .            .            .            *
  8.440E-02 -2.870E-13 .            .            .            .            *
  8.460E-02 -2.888E-13 .            .            .            .            *
  8.480E-02 -2.905E-13 .            .            .            .            *
  8.500E-02 -2.923E-13 .            .            .            .            *
  8.520E-02 -2.941E-13 .            .            .            .            *
  8.540E-02 -2.958E-13 .            .            .            .            *
  8.560E-02 -2.977E-13 .            .            .            .            *
  8.580E-02 -2.995E-13 .            .            .            .            *
  8.600E-02 -3.013E-13 .            .            .            .            *
  8.620E-02 -3.031E-13 .            .            .            .            *
  8.640E-02 -3.050E-13 .            .            .            .            *
  8.660E-02 -3.068E-13 .            .            .            .            *
  8.680E-02 -3.087E-13 .            .            .            .            *
  8.700E-02 -3.106E-13 .            .            .            .            *
  8.720E-02 -3.125E-13 .            .            .            .            *
  8.740E-02 -3.144E-13 .            .            .            .            *
  8.760E-02 -3.163E-13 .            .            .            .            *
  8.780E-02 -3.183E-13 .            .            .            .            *
  8.800E-02 -3.202E-13 .            .            .            .            *
  8.820E-02 -3.222E-13 .            .            .            .            *
  8.840E-02 -3.242E-13 .            .            .            .            *
  8.860E-02 -3.261E-13 .            .            .            .            *
  8.880E-02 -3.281E-13 .            .            .            .            *
  8.900E-02 -3.302E-13 .            .            .            .            *
  8.920E-02 -3.322E-13 .            .            .            .            *
  8.940E-02 -3.342E-13 .            .            .            .            *
  8.960E-02 -3.363E-13 .            .            .            .            *
  8.980E-02 -3.383E-13 .            .            .            .            *
  9.000E-02 -3.404E-13 .            .            .            .            *
  9.020E-02 -3.425E-13 .            .            .            .            *
  9.040E-02 -3.446E-13 .            .            .            .            *
  9.060E-02 -3.467E-13 .            .            .            .            *
  9.080E-02 -3.489E-13 .            .            .            .            *
  9.100E-02 -3.510E-13 .            .            .            .            *
  9.120E-02 -3.532E-13 .            .            .            .            *
  9.140E-02 -3.554E-13 .            .            .            .            *
  9.160E-02 -3.576E-13 .            .            .            .            *
  9.180E-02 -3.598E-13 .            .            .            .            *
  9.200E-02 -3.620E-13 .            .            .            .            *
  9.220E-02 -3.642E-13 .            .            .            .            *
  9.240E-02 -3.665E-13 .            .            .            .            *
  9.260E-02 -3.687E-13 .            .            .            .            *
  9.280E-02 -3.710E-13 .            .            .            .            *
  9.300E-02 -3.733E-13 .            .            .            .            *
  9.320E-02 -3.756E-13 .            .            .            .            *
  9.340E-02 -3.779E-13 .            .            .            .            *
  9.360E-02 -3.803E-13 .            .            .            .            *
  9.380E-02 -3.826E-13 .            .            .            .            *
  9.400E-02 -3.850E-13 .            .            .            .            *
  9.420E-02 -3.874E-13 .            .            .            .            *
  9.440E-02 -3.898E-13 .            .            .            .            *
  9.460E-02 -3.922E-13 .            .            .            .            *
  9.480E-02 -3.947E-13 .            .            .            .            *
  9.500E-02 -3.971E-13 .            .            .            .            *
  9.520E-02 -3.996E-13 .            .            .            .            *
  9.540E-02 -4.021E-13 .            .            .            .            *
  9.560E-02 -4.046E-13 .            .            .            .            *
  9.580E-02 -4.071E-13 .            .            .            .            *
  9.600E-02 -4.096E-13 .            .            .            .            *
  9.620E-02 -4.122E-13 .            .            .            .            *
  9.640E-02 -4.147E-13 .            .            .            .            *
  9.660E-02 -4.173E-13 .            .            .            .            *
  9.680E-02 -4.199E-13 .            .            .            .            *
  9.700E-02 -4.226E-13 .            .            .            .            *
  9.720E-02 -4.252E-13 .            .            .            .            *
  9.740E-02 -4.279E-13 .            .            .            .            *
  9.760E-02 -4.305E-13 .            .            .            .            *
  9.780E-02 -4.332E-13 .            .            .            .            *
  9.800E-02 -4.359E-13 .            .            .            .            *
  9.820E-02 -4.387E-13 .            .            .            .            *
  9.840E-02 -4.414E-13 .            .            .            .            *
  9.860E-02 -4.442E-13 .            .            .            .            *
  9.880E-02 -4.470E-13 .            .            .            .            *
  9.900E-02 -4.498E-13 .            .            .            .            *
  9.920E-02 -4.526E-13 .            .            .            .            *
  9.940E-02 -4.554E-13 .            .            .            .            *
  9.960E-02 -4.583E-13 .            .            .            .            *
  9.980E-02 -4.612E-13 .            .            .            .            *
  1.000E-01 -4.641E-13 .            .            .            .            *
  1.002E-01 -4.670E-13 .            .            .            .            *
  1.004E-01 -4.699E-13 .            .            .            .            *
  1.006E-01 -4.729E-13 .            .            .            .            *
  1.008E-01 -4.759E-13 .            .            .            .            *
  1.010E-01 -4.789E-13 .            .            .            .            *
  1.012E-01 -4.819E-13 .            .            .            .            *
  1.014E-01 -4.849E-13 .            .            .            .            *
  1.016E-01 -4.880E-13 .            .            .            .            *
  1.018E-01 -4.911E-13 .            .            .            .            *
  1.020E-01 -4.942E-13 .            .            .            .            *
  1.022E-01 -4.973E-13 .            .            .            .            *
  1.024E-01 -5.004E-13 .            .            .            .            *
  1.026E-01 -5.036E-13 .            .            .            .            *
  1.028E-01 -5.068E-13 .            .            .            .            *
  1.030E-01 -5.100E-13 .            .            .            .            *
  1.032E-01 -5.132E-13 .            .            .            .            *
  1.034E-01 -5.165E-13 .            .            .            .            *
  1.036E-01 -5.198E-13 .            .            .            .            *
  1.038E-01 -5.231E-13 .            .            .            .            *
  1.040E-01 -5.264E-13 .            .            .            .            *
  1.042E-01 -5.297E-13 .            .            .            .            *
  1.044E-01 -5.331E-13 .            .            .            .            *
  1.046E-01 -5.365E-13 .            .            .            .            *
  1.048E-01 -5.399E-13 .            .            .            .            *
  1.050E-01 -5.433E-13 .            .            .            .            *
  1.052E-01 -5.468E-13 .            .            .            .            *
  1.054E-01 -5.503E-13 .            .            .            .            *
  1.056E-01 -5.538E-13 .            .            .            .            *
  1.058E-01 -5.573E-13 .            .            .            .            *
  1.060E-01 -5.609E-13 .            .            .            .            *
  1.062E-01 -5.645E-13 .            .            .            .            *
  1.064E-01 -5.681E-13 .            .            .            .            *
  1.066E-01 -5.717E-13 .            .            .            .            *
  1.068E-01 -5.753E-13 .            .            .            .            *
  1.070E-01 -5.790E-13 .            .            .            .            *
  1.072E-01 -5.827E-13 .            .            .            .            *
  1.074E-01 -5.865E-13 .            .            .            .            *
  1.076E-01 -5.902E-13 .            .            .            .            *
  1.078E-01 -5.940E-13 .            .            .            .            *
  1.080E-01 -5.978E-13 .            .            .            .            *
  1.082E-01 -6.016E-13 .            .            .            .            *
  1.084E-01 -6.055E-13 .            .            .            .            *
  1.086E-01 -6.094E-13 .            .            .            .            *
  1.088E-01 -6.133E-13 .            .            .            .            *
  1.090E-01 -6.172E-13 .            .            .            .            *
  1.092E-01 -6.212E-13 .            .            .            .            *
  1.094E-01 -6.252E-13 .            .            .            .            *
  1.096E-01 -6.292E-13 .            .            .            .            *
  1.098E-01 -6.333E-13 .            .            .            .            *
  1.100E-01 -6.373E-13 .            .            .            .            *
  1.102E-01 -6.415E-13 .            .            .            .            *
  1.104E-01 -6.456E-13 .            .            .            .            *
  1.106E-01 -6.498E-13 .            .            .            .            *
  1.108E-01 -6.539E-13 .            .            .            .            *
  1.110E-01 -6.582E-13 .            .            .            .            *
  1.112E-01 -6.624E-13 .            .            .            .            *
  1.114E-01 -6.667E-13 .            .            .            .            *
  1.116E-01 -6.710E-13 .            .            .            .            *
  1.118E-01 -6.753E-13 .            .            .            .            *
  1.120E-01 -6.797E-13 .            .            .            .            *
  1.122E-01 -6.841E-13 .            .            .            .            *
  1.124E-01 -6.885E-13 .            .            .            .            *
  1.126E-01 -6.930E-13 .            .            .            .            *
  1.128E-01 -6.975E-13 .            .            .            .            *
  1.130E-01 -7.020E-13 .            .            .            .            *
  1.132E-01 -7.066E-13 .            .            .            .            *
  1.134E-01 -7.112E-13 .            .            .            .            *
  1.136E-01 -7.158E-13 .            .            .            .            *
  1.138E-01 -7.204E-13 .            .            .            .            *
  1.140E-01 -7.251E-13 .            .            .            .            *
  1.142E-01 -7.298E-13 .            .            .            .            *
  1.144E-01 -7.346E-13 .            .            .            .            *
  1.146E-01 -7.394E-13 .            .            .            .            *
  1.148E-01 -7.442E-13 .            .            .            .            *
  1.150E-01 -7.490E-13 .            .            .            .            *
  1.152E-01 -7.539E-13 .            .            .            .            *
  1.154E-01 -7.588E-13 .            .            .            .            *
  1.156E-01 -7.638E-13 .            .            .            .            *
  1.158E-01 -7.688E-13 .            .            .            .            *
  1.160E-01 -7.738E-13 .            .            .            .            *
  1.162E-01 -7.788E-13 .            .            .            .            *
  1.164E-01 -7.839E-13 .            .            .            .            *
  1.166E-01 -7.891E-13 .            .            .            .            *
  1.168E-01 -7.942E-13 .            .            .            .            *
  1.170E-01 -7.994E-13 .            .            .            .            *
  1.172E-01 -8.046E-13 .            .            .            .            *
  1.174E-01 -8.099E-13 .            .            .            .            *
  1.176E-01 -8.152E-13 .            .            .            .            *
  1.178E-01 -8.206E-13 .            .            .            .            *
  1.180E-01 -8.259E-13 .            .            .            .            *
  1.182E-01 -8.314E-13 .            .            .            .            *
  1.184E-01 -8.368E-13 .            .            .            .            *
  1.186E-01 -8.423E-13 .            .            .            .            *
  1.188E-01 -8.479E-13 .            .            .            .            *
  1.190E-01 -8.534E-13 .            .            .            .            *
  1.192E-01 -8.590E-13 .            .            .            .            *
  1.194E-01 -8.647E-13 .            .            .            .            *
  1.196E-01 -8.704E-13 .            .            .            .            *
  1.198E-01 -8.761E-13 .            .            .            .            *
  1.200E-01 -8.819E-13 .            .            .            .            *
  1.202E-01 -8.877E-13 .            .            .            .            *
  1.204E-01 -8.935E-13 .            .            .            .            *
  1.206E-01 -8.994E-13 .            .            .            .            *
  1.208E-01 -9.054E-13 .            .            .            .            *
  1.210E-01 -9.114E-13 .            .            .            .            *
  1.212E-01 -9.174E-13 .            .            .            .            *
  1.214E-01 -9.234E-13 .            .            .            .            *
  1.216E-01 -9.295E-13 .            .            .            .            *
  1.218E-01 -9.357E-13 .            .            .            .            *
  1.220E-01 -9.419E-13 .            .            .            .            *
  1.222E-01 -9.481E-13 .            .            .            .            *
  1.224E-01 -9.544E-13 .            .            .            .            *
  1.226E-01 -9.607E-13 .            .            .            .            *
  1.228E-01 -9.671E-13 .            .            .            .            *
  1.230E-01 -9.735E-13 .            .            .            .            *
  1.232E-01 -9.799E-13 .            .            .            .            *
  1.234E-01 -9.864E-13 .            .            .            .            *
  1.236E-01 -9.930E-13 .            .            .            .            *
  1.238E-01 -9.996E-13 .            .            .            .            *
  1.240E-01 -1.006E-12 .            .            .            .            *
  1.242E-01 -1.013E-12 .            .            .            .            *
  1.244E-01 -1.020E-12 .            .            .            .            *
  1.246E-01 -1.026E-12 .            .            .            .            *
  1.248E-01 -1.033E-12 .            .            .            .            *
  1.250E-01 -1.040E-12 .            .            .            .            *
  1.252E-01 -1.047E-12 .            .            .            .            *
  1.254E-01 -1.054E-12 .            .            .            .            *
  1.256E-01 -1.061E-12 .            .            .            .            *
  1.258E-01 -1.068E-12 .            .            .            .            *
  1.260E-01 -1.075E-12 .            .            .            .            *
  1.262E-01 -1.082E-12 .            .            .            .            *
  1.264E-01 -1.090E-12 .            .            .            .            *
  1.266E-01 -1.097E-12 .            .            .            .            *
  1.268E-01 -1.104E-12 .            .            .            .            *
  1.270E-01 -1.112E-12 .            .            .            .            *
  1.272E-01 -1.119E-12 .            .            .            .            *
  1.274E-01 -1.127E-12 .            .            .            .            *
  1.276E-01 -1.134E-12 .            .            .            .            *
  1.278E-01 -1.142E-12 .            .            .            .            *
  1.280E-01 -1.149E-12 .            .            .            .            *
  1.282E-01 -1.157E-12 .            .            .            .            *
  1.284E-01 -1.165E-12 .            .            .            .            *
  1.286E-01 -1.173E-12 .            .            .            .            *
  1.288E-01 -1.180E-12 .            .            .            .            *
  1.290E-01 -1.188E-12 .            .            .            .            *
  1.292E-01 -1.196E-12 .            .            .            .            *
  1.294E-01 -1.204E-12 .            .            .            .            *
  1.296E-01 -1.212E-12 .            .            .            .            *
  1.298E-01 -1.221E-12 .            .            .            .            *
  1.300E-01 -1.229E-12 .            .            .            .            *
  1.302E-01 -1.237E-12 .            .            .            .            *
  1.304E-01 -1.245E-12 .            .            .            .            *
  1.306E-01 -1.254E-12 .            .            .            .            *
  1.308E-01 -1.262E-12 .            .            .            .            *
  1.310E-01 -1.271E-12 .            .            .            .            *
  1.312E-01 -1.279E-12 .            .            .            .            *
  1.314E-01 -1.288E-12 .            .            .            .            *
  1.316E-01 -1.297E-12 .            .            .            .            *
  1.318E-01 -1.305E-12 .            .            .            .            *
  1.320E-01 -1.314E-12 .            .            .            .            *
  1.322E-01 -1.323E-12 .            .            .            .            *
  1.324E-01 -1.332E-12 .            .            .            .            *
  1.326E-01 -1.341E-12 .            .            .            .            *
  1.328E-01 -1.350E-12 .            .            .            .            *
  1.330E-01 -1.359E-12 .            .            .            .            *
  1.332E-01 -1.368E-12 .            .            .            .            *
  1.334E-01 -1.377E-12 .            .            .            .            *
  1.336E-01 -1.387E-12 .            .            .            .            *
  1.338E-01 -1.396E-12 .            .            .            .            *
  1.340E-01 -1.406E-12 .            .            .            .            *
  1.342E-01 -1.415E-12 .            .            .            .            *
  1.344E-01 -1.425E-12 .            .            .            .            *
  1.346E-01 -1.434E-12 .            .            .            .            *
  1.348E-01 -1.444E-12 .            .            .            .            *
  1.350E-01 -1.454E-12 .            .            .            .            *
  1.352E-01 -1.464E-12 .            .            .            .            *
  1.354E-01 -1.474E-12 .            .            .            .            *
  1.356E-01 -1.484E-12 .            .            .            .            *
  1.358E-01 -1.494E-12 .            .            .            .            *
  1.360E-01 -1.504E-12 .            .            .            .            *
  1.362E-01 -1.514E-12 .            .            .            .            *
  1.364E-01 -1.524E-12 .            .            .            .            *
  1.366E-01 -1.535E-12 .            .            .            .            *
  1.368E-01 -1.545E-12 .            .            .            .            *
  1.370E-01 -1.556E-12 .            .            .            .            *
  1.372E-01 -1.566E-12 .            .            .            .            *
  1.374E-01 -1.577E-12 .            .            .            .            *
  1.376E-01 -1.588E-12 .            .            .            .            *
  1.378E-01 -1.599E-12 .            .            .            .            *
  1.380E-01 -1.609E-12 .            .            .            .            *
  1.382E-01 -1.620E-12 .            .            .            .            *
  1.384E-01 -1.631E-12 .            .            .            .            *
  1.386E-01 -1.643E-12 .            .            .            .            *
  1.388E-01 -1.654E-12 .            .            .            .            *
  1.390E-01 -1.665E-12 .            .            .            .            *
  1.392E-01 -1.676E-12 .            .            .            .            *
  1.394E-01 -1.688E-12 .            .            .            .            *
  1.396E-01 -1.699E-12 .            .            .            .            *
  1.398E-01 -1.711E-12 .            .            .            .            *
  1.400E-01 -1.723E-12 .            .            .            .            *
  1.402E-01 -1.735E-12 .            .            .            .            *
  1.404E-01 -1.746E-12 .            .            .            .            *
  1.406E-01 -1.758E-12 .            .            .            .            *
  1.408E-01 -1.770E-12 .            .            .            .            *
  1.410E-01 -1.782E-12 .            .            .            .            *
  1.412E-01 -1.795E-12 .            .            .            .            *
  1.414E-01 -1.807E-12 .            .            .            .            *
  1.416E-01 -1.819E-12 .            .            .            .            *
  1.418E-01 -1.832E-12 .            .            .            .            *
  1.420E-01 -1.844E-12 .            .            .            .            *
  1.422E-01 -1.857E-12 .            .            .            .            *
  1.424E-01 -1.870E-12 .            .            .            .            *
  1.426E-01 -1.883E-12 .            .            .            .            *
  1.428E-01 -1.896E-12 .            .            .            .            *
  1.430E-01 -1.909E-12 .            .            .            .            *
  1.432E-01 -1.922E-12 .            .            .            .            *
  1.434E-01 -1.935E-12 .            .            .            .            *
  1.436E-01 -1.948E-12 .            .            .            .            *
  1.438E-01 -1.962E-12 .            .            .            .            *
  1.440E-01 -1.975E-12 .            .            .            .            *
  1.442E-01 -1.989E-12 .            .            .            .            *
  1.444E-01 -2.002E-12 .            .            .            .            *
  1.446E-01 -2.016E-12 .            .            .            .            *
  1.448E-01 -2.030E-12 .            .            .            .            *
  1.450E-01 -2.044E-12 .            .            .            .            *
  1.452E-01 -2.058E-12 .            .            .            .            *
  1.454E-01 -2.072E-12 .            .            .            .            *
  1.456E-01 -2.086E-12 .            .            .            .            *
  1.458E-01 -2.101E-12 .            .            .            .            *
  1.460E-01 -2.115E-12 .            .            .            .            *
  1.462E-01 -2.130E-12 .            .            .            .            *
  1.464E-01 -2.145E-12 .            .            .            .            *
  1.466E-01 -2.159E-12 .            .            .            .            *
  1.468E-01 -2.174E-12 .            .            .            .            *
  1.470E-01 -2.189E-12 .            .            .            .            *
  1.472E-01 -2.204E-12 .            .            .            .            *
  1.474E-01 -2.220E-12 .            .            .            .            *
  1.476E-01 -2.235E-12 .            .            .            .            *
  1.478E-01 -2.250E-12 .            .            .            .            *
  1.480E-01 -2.266E-12 .            .            .            .            *
  1.482E-01 -2.282E-12 .            .            .            .            *
  1.484E-01 -2.298E-12 .            .            .            .            *
  1.486E-01 -2.313E-12 .            .            .            .            *
  1.488E-01 -2.329E-12 .            .            .            .            *
  1.490E-01 -2.346E-12 .            .            .            .            *
  1.492E-01 -2.362E-12 .            .            .            .            *
  1.494E-01 -2.378E-12 .            .            .            .            *
  1.496E-01 -2.395E-12 .            .            .            .            *
  1.498E-01 -2.411E-12 .            .            .            .            *
  1.500E-01 -2.428E-12 .            .            .            .            *
  1.502E-01 -2.445E-12 .            .            .            .            *
  1.504E-01 -2.462E-12 .            .            .            .            *
  1.506E-01 -2.479E-12 .            .            .            .            *
  1.508E-01 -2.496E-12 .            .            .            .            *
  1.510E-01 -2.513E-12 .            .            .            .            *
  1.512E-01 -2.531E-12 .            .            .            .            *
  1.514E-01 -2.548E-12 .            .            .            .            *
  1.516E-01 -2.566E-12 .            .            .            .            *
  1.518E-01 -2.584E-12 .            .            .            .            *
  1.520E-01 -2.602E-12 .            .            .            .            *
  1.522E-01 -2.620E-12 .            .            .            .            *
  1.524E-01 -2.638E-12 .            .            .            .            *
  1.526E-01 -2.656E-12 .            .            .            .            *
  1.528E-01 -2.675E-12 .            .            .            .            *
  1.530E-01 -2.694E-12 .            .            .            .            *
  1.532E-01 -2.712E-12 .            .            .            .            *
  1.534E-01 -2.731E-12 .            .            .            .            *
  1.536E-01 -2.750E-12 .            .            .            .            *
  1.538E-01 -2.769E-12 .            .            .            .            *
  1.540E-01 -2.789E-12 .            .            .            .            *
  1.542E-01 -2.808E-12 .            .            .            .            *
  1.544E-01 -2.828E-12 .            .            .            .            *
  1.546E-01 -2.847E-12 .            .            .            .            *
  1.548E-01 -2.867E-12 .            .            .            .            *
  1.550E-01 -2.887E-12 .            .            .            .            *
  1.552E-01 -2.907E-12 .            .            .            .            *
  1.554E-01 -2.928E-12 .            .            .            .            *
  1.556E-01 -2.948E-12 .            .            .            .            *
  1.558E-01 -2.969E-12 .            .            .            .            *
  1.560E-01 -2.989E-12 .            .            .            .            *
  1.562E-01 -3.010E-12 .            .            .            .            *
  1.564E-01 -3.031E-12 .            .            .            .            *
  1.566E-01 -3.052E-12 .            .            .            .            *
  1.568E-01 -3.074E-12 .            .            .            .            *
  1.570E-01 -3.095E-12 .            .            .            .            *
  1.572E-01 -3.117E-12 .            .            .            .            *
  1.574E-01 -3.139E-12 .            .            .            .            *
  1.576E-01 -3.161E-12 .            .            .            .            *
  1.578E-01 -3.183E-12 .            .            .            .            *
  1.580E-01 -3.205E-12 .            .            .            .            *
  1.582E-01 -3.227E-12 .            .            .            .            *
  1.584E-01 -3.250E-12 .            .            .            .            *
  1.586E-01 -3.273E-12 .            .            .            .            *
  1.588E-01 -3.296E-12 .            .            .            .            *
  1.590E-01 -3.319E-12 .            .            .            .            *
  1.592E-01 -3.342E-12 .            .            .            .            *
  1.594E-01 -3.365E-12 .            .            .            .            *
  1.596E-01 -3.389E-12 .            .            .            .            *
  1.598E-01 -3.413E-12 .            .            .            .            *
  1.600E-01 -3.437E-12 .            .            .            .            *
  1.602E-01 -3.461E-12 .            .            .            .            *
  1.604E-01 -3.485E-12 .            .            .            .            *
  1.606E-01 -3.509E-12 .            .            .            .            *
  1.608E-01 -3.534E-12 .            .            .            .            *
  1.610E-01 -3.559E-12 .            .            .            .            *
  1.612E-01 -3.584E-12 .            .            .            .            *
  1.614E-01 -3.609E-12 .            .            .            .            *
  1.616E-01 -3.634E-12 .            .            .            .            *
  1.618E-01 -3.660E-12 .            .            .            .            *
  1.620E-01 -3.685E-12 .            .            .            .            *
  1.622E-01 -3.711E-12 .            .            .            .            *
  1.624E-01 -3.737E-12 .            .            .            .            *
  1.626E-01 -3.764E-12 .            .            .            .            *
  1.628E-01 -3.790E-12 .            .            .            .            *
  1.630E-01 -3.817E-12 .            .            .            .            *
  1.632E-01 -3.844E-12 .            .            .            .            *
  1.634E-01 -3.871E-12 .            .            .            .            *
  1.636E-01 -3.898E-12 .            .            .            .            *
  1.638E-01 -3.925E-12 .            .            .            .            *
  1.640E-01 -3.953E-12 .            .            .            .            *
  1.642E-01 -3.981E-12 .            .            .            .            *
  1.644E-01 -4.009E-12 .            .            .            .            *
  1.646E-01 -4.037E-12 .            .            .            .            *
  1.648E-01 -4.065E-12 .            .            .            .            *
  1.650E-01 -4.094E-12 .            .            .            .            *
  1.652E-01 -4.123E-12 .            .            .            .            *
  1.654E-01 -4.152E-12 .            .            .            .            *
  1.656E-01 -4.181E-12 .            .            .            .            *
  1.658E-01 -4.211E-12 .            .            .            .            *
  1.660E-01 -4.240E-12 .            .            .            .            *
  1.662E-01 -4.270E-12 .            .            .            .            *
  1.664E-01 -4.300E-12 .            .            .            .            *
  1.666E-01 -4.331E-12 .            .            .            .            *
  1.668E-01 -4.361E-12 .            .            .            .            *
  1.670E-01 -4.392E-12 .            .            .            .            *
  1.672E-01 -4.423E-12 .            .            .            .            *
  1.674E-01 -4.454E-12 .            .            .            .            *
  1.676E-01 -4.486E-12 .            .            .            .            *
  1.678E-01 -4.517E-12 .            .            .            .            *
  1.680E-01 -4.549E-12 .            .            .            .            *
  1.682E-01 -4.581E-12 .            .            .            .            *
  1.684E-01 -4.614E-12 .            .            .            .            *
  1.686E-01 -4.646E-12 .            .            .            .            *
  1.688E-01 -4.679E-12 .            .            .            .            *
  1.690E-01 -4.712E-12 .            .            .            .            *
  1.692E-01 -4.745E-12 .            .            .            .            *
  1.694E-01 -4.779E-12 .            .            .            .            *
  1.696E-01 -4.813E-12 .            .            .            .            *
  1.698E-01 -4.847E-12 .            .            .            .            *
  1.700E-01 -4.881E-12 .            .            .            .            *
  1.702E-01 -4.916E-12 .            .            .            .            *
  1.704E-01 -4.950E-12 .            .            .            .            *
  1.706E-01 -4.985E-12 .            .            .            .            *
  1.708E-01 -5.021E-12 .            .            .            .            *
  1.710E-01 -5.056E-12 .            .            .            .            *
  1.712E-01 -5.092E-12 .            .            .            .            *
  1.714E-01 -5.128E-12 .            .            .            .            *
  1.716E-01 -5.164E-12 .            .            .            .            *
  1.718E-01 -5.201E-12 .            .            .            .            *
  1.720E-01 -5.238E-12 .            .            .            .            *
  1.722E-01 -5.275E-12 .            .            .            .            *
  1.724E-01 -5.312E-12 .            .            .            .            *
  1.726E-01 -5.350E-12 .            .            .            .            *
  1.728E-01 -5.388E-12 .            .            .            .            *
  1.730E-01 -5.426E-12 .            .            .            .            *
  1.732E-01 -5.464E-12 .            .            .            .            *
  1.734E-01 -5.503E-12 .            .            .            .            *
  1.736E-01 -5.542E-12 .            .            .            .            *
  1.738E-01 -5.581E-12 .            .            .            .            *
  1.740E-01 -5.621E-12 .            .            .            .            *
  1.742E-01 -5.661E-12 .            .            .            .            *
  1.744E-01 -5.701E-12 .            .            .            .            *
  1.746E-01 -5.741E-12 .            .            .            .            *
  1.748E-01 -5.782E-12 .            .            .            .            *
  1.750E-01 -5.823E-12 .            .            .            .            *
  1.752E-01 -5.865E-12 .            .            .            .            *
  1.754E-01 -5.906E-12 .            .            .            .            *
  1.756E-01 -5.948E-12 .            .            .            .            *
  1.758E-01 -5.990E-12 .            .            .            .            *
  1.760E-01 -6.033E-12 .            .            .            .            *
  1.762E-01 -6.076E-12 .            .            .            .            *
  1.764E-01 -6.119E-12 .            .            .            .            *
  1.766E-01 -6.162E-12 .            .            .            .            *
  1.768E-01 -6.206E-12 .            .            .            .            *
  1.770E-01 -6.250E-12 .            .            .            .            *
  1.772E-01 -6.295E-12 .            .            .            .            *
  1.774E-01 -6.339E-12 .            .            .            .            *
  1.776E-01 -6.385E-12 .            .            .            .            *
  1.778E-01 -6.430E-12 .            .            .            .            *
  1.780E-01 -6.476E-12 .            .            .            .            *
  1.782E-01 -6.522E-12 .            .            .            .            *
  1.784E-01 -6.568E-12 .            .            .            .            *
  1.786E-01 -6.615E-12 .            .            .            .            *
  1.788E-01 -6.662E-12 .            .            .            .            *
  1.790E-01 -6.709E-12 .            .            .            .            *
  1.792E-01 -6.757E-12 .            .            .            .            *
  1.794E-01 -6.805E-12 .            .            .            .            *
  1.796E-01 -6.854E-12 .            .            .            .            *
  1.798E-01 -6.902E-12 .            .            .            .            *
  1.800E-01 -6.952E-12 .            .            .            .            *
  1.802E-01 -7.001E-12 .            .            .            .            *
  1.804E-01 -7.051E-12 .            .            .            .            *
  1.806E-01 -7.101E-12 .            .            .            .            *
  1.808E-01 -7.152E-12 .            .            .            .            *
  1.810E-01 -7.203E-12 .            .            .            .            *
  1.812E-01 -7.254E-12 .            .            .            .            *
  1.814E-01 -7.306E-12 .            .            .            .            *
  1.816E-01 -7.358E-12 .            .            .            .            *
  1.818E-01 -7.410E-12 .            .            .            .            *
  1.820E-01 -7.463E-12 .            .            .            .            *
  1.822E-01 -7.516E-12 .            .            .            .            *
  1.824E-01 -7.570E-12 .            .            .            .            *
  1.826E-01 -7.624E-12 .            .            .            .            *
  1.828E-01 -7.678E-12 .            .            .            .            *
  1.830E-01 -7.733E-12 .            .            .            .            *
  1.832E-01 -7.788E-12 .            .            .            .            *
  1.834E-01 -7.844E-12 .            .            .            .            *
  1.836E-01 -7.900E-12 .            .            .            .            *
  1.838E-01 -7.956E-12 .            .            .            .            *
  1.840E-01 -8.013E-12 .            .            .            .            *
  1.842E-01 -8.070E-12 .            .            .            .            *
  1.844E-01 -8.128E-12 .            .            .            .            *
  1.846E-01 -8.186E-12 .            .            .            .            *
  1.848E-01 -8.244E-12 .            .            .            .            *
  1.850E-01 -8.303E-12 .            .            .            .            *
  1.852E-01 -8.362E-12 .            .            .            .            *
  1.854E-01 -8.422E-12 .            .            .            .            *
  1.856E-01 -8.482E-12 .            .            .            .            *
  1.858E-01 -8.543E-12 .            .            .            .            *
  1.860E-01 -8.604E-12 .            .            .            .            *
  1.862E-01 -8.665E-12 .            .            .            .            *
  1.864E-01 -8.727E-12 .            .            .            .            *
  1.866E-01 -8.789E-12 .            .            .            .            *
  1.868E-01 -8.852E-12 .            .            .            .            *
  1.870E-01 -8.915E-12 .            .            .            .            *
  1.872E-01 -8.979E-12 .            .            .            .            *
  1.874E-01 -9.043E-12 .            .            .            .            *
  1.876E-01 -9.108E-12 .            .            .            .            *
  1.878E-01 -9.173E-12 .            .            .            .            *
  1.880E-01 -9.239E-12 .            .            .            .            *
  1.882E-01 -9.305E-12 .            .            .            .            *
  1.884E-01 -9.371E-12 .            .            .            .            *
  1.886E-01 -9.438E-12 .            .            .            .            *
  1.888E-01 -9.506E-12 .            .            .            .            *
  1.890E-01 -9.574E-12 .            .            .            .            *
  1.892E-01 -9.642E-12 .            .            .            .            *
  1.894E-01 -9.711E-12 .            .            .            .            *
  1.896E-01 -9.781E-12 .            .            .            .            *
  1.898E-01 -9.851E-12 .            .            .            .            *
  1.900E-01 -9.921E-12 .            .            .            .            *
  1.902E-01 -9.992E-12 .            .            .            .            *
  1.904E-01 -1.006E-11 .            .            .            .            *
  1.906E-01 -1.014E-11 .            .            .            .            *
  1.908E-01 -1.021E-11 .            .            .            .            *
  1.910E-01 -1.028E-11 .            .            .            .            *
  1.912E-01 -1.036E-11 .            .            .            .            *
  1.914E-01 -1.043E-11 .            .            .            .            *
  1.916E-01 -1.050E-11 .            .            .            .            *
  1.918E-01 -1.058E-11 .            .            .            .            *
  1.920E-01 -1.066E-11 .            .            .            .            *
  1.922E-01 -1.073E-11 .            .            .            .            *
  1.924E-01 -1.081E-11 .            .            .            .            *
  1.926E-01 -1.089E-11 .            .            .            .            *
  1.928E-01 -1.096E-11 .            .            .            .            *
  1.930E-01 -1.104E-11 .            .            .            .            *
  1.932E-01 -1.112E-11 .            .            .            .            *
  1.934E-01 -1.120E-11 .            .            .            .            *
  1.936E-01 -1.128E-11 .            .            .            .            *
  1.938E-01 -1.136E-11 .            .            .            .            *
  1.940E-01 -1.144E-11 .            .            .            .            *
  1.942E-01 -1.153E-11 .            .            .            .            *
  1.944E-01 -1.161E-11 .            .            .            .            *
  1.946E-01 -1.169E-11 .            .            .            .            *
  1.948E-01 -1.178E-11 .            .            .            .            *
  1.950E-01 -1.186E-11 .            .            .            .            *
  1.952E-01 -1.195E-11 .            .            .            .            *
  1.954E-01 -1.203E-11 .            .            .            .            *
  1.956E-01 -1.212E-11 .            .            .            .            *
  1.958E-01 -1.220E-11 .            .            .            .            *
  1.960E-01 -1.229E-11 .            .            .            .            *
  1.962E-01 -1.238E-11 .            .            .            .            *
  1.964E-01 -1.247E-11 .            .            .            .            *
  1.966E-01 -1.256E-11 .            .            .            .            *
  1.968E-01 -1.265E-11 .            .            .            .            *
  1.970E-01 -1.274E-11 .            .            .            .            *
  1.972E-01 -1.283E-11 .            .            .            .            *
  1.974E-01 -1.292E-11 .            .            .            .            *
  1.976E-01 -1.302E-11 .            .            .            .            *
  1.978E-01 -1.311E-11 .            .            .            .            *
  1.980E-01 -1.320E-11 .            .            .            .            *
  1.982E-01 -1.330E-11 .            .            .            .            *
  1.984E-01 -1.339E-11 .            .            .            .            *
  1.986E-01 -1.349E-11 .            .            .            .            *
  1.988E-01 -1.359E-11 .            .            .            .            *
  1.990E-01 -1.368E-11 .            .            .            .            *
  1.992E-01 -1.378E-11 .            .            .            .            *
  1.994E-01 -1.388E-11 .            .            .            .            *
  1.996E-01 -1.398E-11 .            .            .            .            *
  1.998E-01 -1.408E-11 .            .            .            .            *
  2.000E-01 -1.418E-11 .            .            .            .            *
  2.002E-01 -1.429E-11 .            .            .            .            *
  2.004E-01 -1.439E-11 .            .            .            .            *
  2.006E-01 -1.449E-11 .            .            .            .            *
  2.008E-01 -1.460E-11 .            .            .            .            *
  2.010E-01 -1.470E-11 .            .            .            .            *
  2.012E-01 -1.481E-11 .            .            .            .            *
  2.014E-01 -1.491E-11 .            .            .            .            *
  2.016E-01 -1.502E-11 .            .            .            .            *
  2.018E-01 -1.513E-11 .            .            .            .            *
  2.020E-01 -1.524E-11 .            .            .            .            *
  2.022E-01 -1.535E-11 .            .            .            .            *
  2.024E-01 -1.546E-11 .            .            .            .            *
  2.026E-01 -1.557E-11 .            .            .            .            *
  2.028E-01 -1.568E-11 .            .            .            .            *
  2.030E-01 -1.579E-11 .            .            .            .            *
  2.032E-01 -1.591E-11 .            .            .            .            *
  2.034E-01 -1.602E-11 .            .            .            .            *
  2.036E-01 -1.614E-11 .            .            .            .            *
  2.038E-01 -1.625E-11 .            .            .            .            *
  2.040E-01 -1.637E-11 .            .            .            .            *
  2.042E-01 -1.649E-11 .            .            .            .            *
  2.044E-01 -1.660E-11 .            .            .            .            *
[...]
  7.494E-01 -6.134E-03 .            .            .            .    *       .
  7.496E-01 -6.179E-03 .            .            .            .    *       .
  7.498E-01 -6.224E-03 .            .            .            .    *       .
  7.500E-01 -6.269E-03 .            .            .            .    *       .
  7.502E-01 -6.315E-03 .            .            .            .    *       .
  7.504E-01 -6.360E-03 .            .            .            .    *       .
  7.506E-01 -6.407E-03 .            .            .            .    *       .
  7.508E-01 -6.453E-03 .            .            .            .    *       .
  7.510E-01 -6.500E-03 .            .            .            .    *       .
  7.512E-01 -6.547E-03 .            .            .            .   *        .
  7.514E-01 -6.595E-03 .            .            .            .   *        .
  7.516E-01 -6.643E-03 .            .            .            .   *        .
  7.518E-01 -6.691E-03 .            .            .            .   *        .
  7.520E-01 -6.740E-03 .            .            .            .   *        .
  7.522E-01 -6.789E-03 .            .            .            .   *        .
  7.524E-01 -6.838E-03 .            .            .            .   *        .
  7.526E-01 -6.888E-03 .            .            .            .   *        .
  7.528E-01 -6.938E-03 .            .            .            .   *        .
  7.530E-01 -6.989E-03 .            .            .            .   *        .
  7.532E-01 -7.039E-03 .            .            .            .   *        .
  7.534E-01 -7.091E-03 .            .            .            .   *        .
  7.536E-01 -7.142E-03 .            .            .            .   *        .
  7.538E-01 -7.194E-03 .            .            .            .   *        .
  7.540E-01 -7.246E-03 .            .            .            .   *        .
  7.542E-01 -7.299E-03 .            .            .            .   *        .
  7.544E-01 -7.352E-03 .            .            .            .  *         .
  7.546E-01 -7.406E-03 .            .            .            .  *         .
  7.548E-01 -7.459E-03 .            .            .            .  *         .
  7.550E-01 -7.514E-03 .            .            .            .  *         .
  7.552E-01 -7.568E-03 .            .            .            .  *         .
  7.554E-01 -7.623E-03 .            .            .            .  *         .
  7.556E-01 -7.679E-03 .            .            .            .  *         .
  7.558E-01 -7.734E-03 .            .            .            .  *         .
  7.560E-01 -7.791E-03 .            .            .            .  *         .
  7.562E-01 -7.847E-03 .            .            .            .  *         .
  7.564E-01 -7.904E-03 .            .            .            .  *         .
  7.566E-01 -7.962E-03 .            .            .            .  *         .
  7.568E-01 -8.020E-03 .            .            .            .  *         .
  7.570E-01 -8.078E-03 .            .            .            . *          .
  7.572E-01 -8.137E-03 .            .            .            . *          .
  7.574E-01 -8.196E-03 .            .            .            . *          .
  7.576E-01 -8.255E-03 .            .            .            . *          .
  7.578E-01 -8.316E-03 .            .            .            . *          .
  7.580E-01 -8.376E-03 .            .            .            . *          .
  7.582E-01 -8.437E-03 .            .            .            . *          .
  7.584E-01 -8.498E-03 .            .            .            . *          .
  7.586E-01 -8.560E-03 .            .            .            . *          .
  7.588E-01 -8.622E-03 .            .            .            . *          .
  7.590E-01 -8.685E-03 .            .            .            . *          .
  7.592E-01 -8.748E-03 .            .            .            . *          .
  7.594E-01 -8.812E-03 .            .            .            . *          .
  7.596E-01 -8.876E-03 .            .            .            .*           .
  7.598E-01 -8.940E-03 .            .            .            .*           .
  7.600E-01 -9.005E-03 .            .            .            .*           .
  7.602E-01 -9.071E-03 .            .            .            .*           .
  7.604E-01 -9.137E-03 .            .            .            .*           .
  7.606E-01 -9.203E-03 .            .            .            .*           .
  7.608E-01 -9.270E-03 .            .            .            .*           .
  7.610E-01 -9.337E-03 .            .            .            .*           .
  7.612E-01 -9.405E-03 .            .            .            .*           .
  7.614E-01 -9.474E-03 .            .            .            .*           .
  7.616E-01 -9.542E-03 .            .            .            .*           .
  7.618E-01 -9.612E-03 .            .            .            .*           .
  7.620E-01 -9.682E-03 .            .            .            *            .
  7.622E-01 -9.752E-03 .            .            .            *            .
  7.624E-01 -9.823E-03 .            .            .            *            .
  7.626E-01 -9.894E-03 .            .            .            *            .
  7.628E-01 -9.966E-03 .            .            .            *            .
  7.630E-01 -1.004E-02 .            .            .            *            .
  7.632E-01 -1.011E-02 .            .            .            *            .
  7.634E-01 -1.019E-02 .            .            .            *            .
  7.636E-01 -1.026E-02 .            .            .            *            .
  7.638E-01 -1.033E-02 .            .            .            *            .
  7.640E-01 -1.041E-02 .            .            .           *.            .
  7.642E-01 -1.048E-02 .            .            .           *.            .
  7.644E-01 -1.056E-02 .            .            .           *.            .
  7.646E-01 -1.064E-02 .            .            .           *.            .
  7.648E-01 -1.072E-02 .            .            .           *.            .
  7.650E-01 -1.079E-02 .            .            .           *.            .
  7.652E-01 -1.087E-02 .            .            .           *.            .
  7.654E-01 -1.095E-02 .            .            .           *.            .
  7.656E-01 -1.103E-02 .            .            .           *.            .
  7.658E-01 -1.111E-02 .            .            .           *.            .
  7.660E-01 -1.119E-02 .            .            .          * .            .
  7.662E-01 -1.127E-02 .            .            .          * .            .
  7.664E-01 -1.135E-02 .            .            .          * .            .
  7.666E-01 -1.144E-02 .            .            .          * .            .
  7.668E-01 -1.152E-02 .            .            .          * .            .
  7.670E-01 -1.160E-02 .            .            .          * .            .
  7.672E-01 -1.169E-02 .            .            .          * .            .
  7.674E-01 -1.177E-02 .            .            .          * .            .
  7.676E-01 -1.186E-02 .            .            .          * .            .
  7.678E-01 -1.195E-02 .            .            .         *  .            .
  7.680E-01 -1.203E-02 .            .            .         *  .            .
  7.682E-01 -1.212E-02 .            .            .         *  .            .
  7.684E-01 -1.221E-02 .            .            .         *  .            .
  7.686E-01 -1.230E-02 .            .            .         *  .            .
  7.688E-01 -1.239E-02 .            .            .         *  .            .
  7.690E-01 -1.248E-02 .            .            .         *  .            .
  7.692E-01 -1.257E-02 .            .            .         *  .            .
  7.694E-01 -1.266E-02 .            .            .         *  .            .
  7.696E-01 -1.275E-02 .            .            .        *   .            .
  7.698E-01 -1.284E-02 .            .            .        *   .            .
  7.700E-01 -1.294E-02 .            .            .        *   .            .
  7.702E-01 -1.303E-02 .            .            .        *   .            .
  7.704E-01 -1.312E-02 .            .            .        *   .            .
  7.706E-01 -1.322E-02 .            .            .        *   .            .
  7.708E-01 -1.332E-02 .            .            .        *   .            .
  7.710E-01 -1.341E-02 .            .            .        *   .            .
  7.712E-01 -1.351E-02 .            .            .       *    .            .
  7.714E-01 -1.361E-02 .            .            .       *    .            .
  7.716E-01 -1.371E-02 .            .            .       *    .            .
  7.718E-01 -1.381E-02 .            .            .       *    .            .
  7.720E-01 -1.391E-02 .            .            .       *    .            .
  7.722E-01 -1.401E-02 .            .            .       *    .            .
  7.724E-01 -1.411E-02 .            .            .       *    .            .
  7.726E-01 -1.421E-02 .            .            .       *    .            .
  7.728E-01 -1.432E-02 .            .            .      *     .            .
  7.730E-01 -1.442E-02 .            .            .      *     .            .
  7.732E-01 -1.453E-02 .            .            .      *     .            .
  7.734E-01 -1.463E-02 .            .            .      *     .            .
  7.736E-01 -1.474E-02 .            .            .      *     .            .
  7.738E-01 -1.484E-02 .            .            .      *     .            .
  7.740E-01 -1.495E-02 .            .            .      *     .            .
  7.742E-01 -1.506E-02 .            .            .     *      .            .
  7.744E-01 -1.517E-02 .            .            .     *      .            .
  7.746E-01 -1.528E-02 .            .            .     *      .            .
  7.748E-01 -1.539E-02 .            .            .     *      .            .
  7.750E-01 -1.550E-02 .            .            .     *      .            .
  7.752E-01 -1.562E-02 .            .            .     *      .            .
  7.754E-01 -1.573E-02 .            .            .     *      .            .
  7.756E-01 -1.584E-02 .            .            .    *       .            .
  7.758E-01 -1.596E-02 .            .            .    *       .            .
  7.760E-01 -1.608E-02 .            .            .    *       .            .
  7.762E-01 -1.619E-02 .            .            .    *       .            .
  7.764E-01 -1.631E-02 .            .            .    *       .            .
  7.766E-01 -1.643E-02 .            .            .    *       .            .
  7.768E-01 -1.655E-02 .            .            .   *        .            .
  7.770E-01 -1.667E-02 .            .            .   *        .            .
  7.772E-01 -1.679E-02 .            .            .   *        .            .
  7.774E-01 -1.691E-02 .            .            .   *        .            .
  7.776E-01 -1.703E-02 .            .            .   *        .            .
  7.778E-01 -1.716E-02 .            .            .   *        .            .
  7.780E-01 -1.728E-02 .            .            .   *        .            .
  7.782E-01 -1.741E-02 .            .            .  *         .            .
  7.784E-01 -1.754E-02 .            .            .  *         .            .
  7.786E-01 -1.766E-02 .            .            .  *         .            .
  7.788E-01 -1.779E-02 .            .            .  *         .            .
  7.790E-01 -1.792E-02 .            .            .  *         .            .
  7.792E-01 -1.805E-02 .            .            .  *         .            .
  7.794E-01 -1.818E-02 .            .            . *          .            .
  7.796E-01 -1.831E-02 .            .            . *          .            .
  7.798E-01 -1.845E-02 .            .            . *          .            .
  7.800E-01 -1.858E-02 .            .            . *          .            .
  7.802E-01 -1.872E-02 .            .            . *          .            .
  7.804E-01 -1.885E-02 .            .            .*           .            .
  7.806E-01 -1.899E-02 .            .            .*           .            .
  7.808E-01 -1.913E-02 .            .            .*           .            .
  7.810E-01 -1.927E-02 .            .            .*           .            .
  7.812E-01 -1.941E-02 .            .            .*           .            .
  7.814E-01 -1.955E-02 .            .            .*           .            .
  7.816E-01 -1.969E-02 .            .            *            .            .
  7.818E-01 -1.983E-02 .            .            *            .            .
  7.820E-01 -1.998E-02 .            .            *            .            .
  7.822E-01 -2.012E-02 .            .            *            .            .
  7.824E-01 -2.027E-02 .            .            *            .            .
  7.826E-01 -2.042E-02 .            .           *.            .            .
  7.828E-01 -2.057E-02 .            .           *.            .            .
  7.830E-01 -2.071E-02 .            .           *.            .            .
  7.832E-01 -2.087E-02 .            .           *.            .            .
  7.834E-01 -2.102E-02 .            .           *.            .            .
  7.836E-01 -2.117E-02 .            .          * .            .            .
  7.838E-01 -2.132E-02 .            .          * .            .            .
  7.840E-01 -2.148E-02 .            .          * .            .            .
  7.842E-01 -2.163E-02 .            .          * .            .            .
  7.844E-01 -2.179E-02 .            .          * .            .            .
  7.846E-01 -2.195E-02 .            .         *  .            .            .
  7.848E-01 -2.211E-02 .            .         *  .            .            .
  7.850E-01 -2.227E-02 .            .         *  .            .            .
  7.852E-01 -2.243E-02 .            .         *  .            .            .
  7.854E-01 -2.260E-02 .            .         *  .            .            .
  7.856E-01 -2.276E-02 .            .        *   .            .            .
  7.858E-01 -2.293E-02 .            .        *   .            .            .
  7.860E-01 -2.309E-02 .            .        *   .            .            .
  7.862E-01 -2.326E-02 .            .        *   .            .            .
  7.864E-01 -2.343E-02 .            .        *   .            .            .
  7.866E-01 -2.360E-02 .            .       *    .            .            .
  7.868E-01 -2.377E-02 .            .       *    .            .            .
  7.870E-01 -2.394E-02 .            .       *    .            .            .
  7.872E-01 -2.412E-02 .            .       *    .            .            .
  7.874E-01 -2.429E-02 .            .      *     .            .            .
  7.876E-01 -2.447E-02 .            .      *     .            .            .
  7.878E-01 -2.465E-02 .            .      *     .            .            .
  7.880E-01 -2.483E-02 .            .      *     .            .            .
  7.882E-01 -2.501E-02 .            .     *      .            .            .
  7.884E-01 -2.519E-02 .            .     *      .            .            .
  7.886E-01 -2.537E-02 .            .     *      .            .            .
  7.888E-01 -2.556E-02 .            .     *      .            .            .
  7.890E-01 -2.574E-02 .            .     *      .            .            .
  7.892E-01 -2.593E-02 .            .    *       .            .            .
  7.894E-01 -2.612E-02 .            .    *       .            .            .
  7.896E-01 -2.631E-02 .            .    *       .            .            .
  7.898E-01 -2.650E-02 .            .    *       .            .            .
  7.900E-01 -2.669E-02 .            .   *        .            .            .
  7.902E-01 -2.689E-02 .            .   *        .            .            .
  7.904E-01 -2.708E-02 .            .   *        .            .            .
  7.906E-01 -2.728E-02 .            .   *        .            .            .
  7.908E-01 -2.748E-02 .            .  *         .            .            .
  7.910E-01 -2.768E-02 .            .  *         .            .            .
  7.912E-01 -2.788E-02 .            .  *         .            .            .
  7.914E-01 -2.808E-02 .            . *          .            .            .
  7.916E-01 -2.828E-02 .            . *          .            .            .
  7.918E-01 -2.849E-02 .            . *          .            .            .
  7.920E-01 -2.870E-02 .            . *          .            .            .
  7.922E-01 -2.891E-02 .            .*           .            .            .
  7.924E-01 -2.912E-02 .            .*           .            .            .
  7.926E-01 -2.933E-02 .            .*           .            .            .
  7.928E-01 -2.954E-02 .            .*           .            .            .
  7.930E-01 -2.976E-02 .            *            .            .            .
  7.932E-01 -2.997E-02 .            *            .            .            .
  7.934E-01 -3.019E-02 .            *            .            .            .
  7.936E-01 -3.041E-02 .           *.            .            .            .
  7.938E-01 -3.063E-02 .           *.            .            .            .
  7.940E-01 -3.085E-02 .           *.            .            .            .
  7.942E-01 -3.108E-02 .           *.            .            .            .
  7.944E-01 -3.130E-02 .          * .            .            .            .
  7.946E-01 -3.153E-02 .          * .            .            .            .
  7.948E-01 -3.176E-02 .          * .            .            .            .
  7.950E-01 -3.199E-02 .         *  .            .            .            .
  7.952E-01 -3.222E-02 .         *  .            .            .            .
  7.954E-01 -3.246E-02 .         *  .            .            .            .
  7.956E-01 -3.269E-02 .        *   .            .            .            .
  7.958E-01 -3.293E-02 .        *   .            .            .            .
  7.960E-01 -3.317E-02 .        *   .            .            .            .
  7.962E-01 -3.341E-02 .        *   .            .            .            .
  7.964E-01 -3.366E-02 .       *    .            .            .            .
  7.966E-01 -3.390E-02 .       *    .            .            .            .
  7.968E-01 -3.415E-02 .       *    .            .            .            .
  7.970E-01 -3.439E-02 .      *     .            .            .            .
  7.972E-01 -3.464E-02 .      *     .            .            .            .
  7.974E-01 -3.490E-02 .      *     .            .            .            .
  7.976E-01 -3.515E-02 .     *      .            .            .            .
  7.978E-01 -3.541E-02 .     *      .            .            .            .
  7.980E-01 -3.566E-02 .     *      .            .            .            .
  7.982E-01 -3.592E-02 .    *       .            .            .            .
  7.984E-01 -3.618E-02 .    *       .            .            .            .
  7.986E-01 -3.645E-02 .    *       .            .            .            .
  7.988E-01 -3.671E-02 .   *        .            .            .            .
  7.990E-01 -3.698E-02 .   *        .            .            .            .
  7.992E-01 -3.725E-02 .   *        .            .            .            .
  7.994E-01 -3.752E-02 .  *         .            .            .            .
  7.996E-01 -3.779E-02 .  *         .            .            .            .
  7.998E-01 -3.807E-02 .  *         .            .            .            .
  8.000E-01 -3.834E-02 . *          .            .            .            .
                       - - - - - - - - - - - - - - - - - - - - - - - - - - - 




          JOB CONCLUDED

**** 04/26/22 19:55:23 ******* PSpice Lite (March 2016) ******* ID# 10813 ****

 Forward Characteristics of a 1mA Diode


 ****     JOB STATISTICS SUMMARY


******************************************************************************



  Total job time (using Solver 1)   =         .13
