
**** 04/26/22 19:55:31 ******* PSpice Lite (March 2016) ******* ID# 10813 ****

 Temperature Effect of I-V characteristics


 ****     CIRCUIT DESCRIPTION


******************************************************************************



*Circuit Description
VD 1 0 DC 700mV
D1 1 0 1mA_diode 
*diode model statement
.model 1mA_diode D (Is=0.01pA n=1.0675)
*analysisrequests *
.DC VD 0V 800mV 200uV
.TEMP 0 27 100
.PLOT DC I(VD)
.probe
.end

**** 04/26/22 19:55:31 ******* PSpice Lite (March 2016) ******* ID# 10813 ****

 Temperature Effect of I-V characteristics


 ****     Diode MODEL PARAMETERS


******************************************************************************




               1mA_diode       
          IS   10.000000E-15 
           N    1.0675       


**** 04/26/22 19:55:31 ******* PSpice Lite (March 2016) ******* ID# 10813 ****

 Temperature Effect of I-V characteristics


 ****     TEMPERATURE-ADJUSTED VALUES      TEMPERATURE =    0.000 DEG C


******************************************************************************




 **** DIODE MODEL PARAMETERS

                  1mA_diode   

         IS        1.442E-16  
         VJ        1.024E+00  
        CJO        0.000E+00  
         RS        0.000E+00  
        IKF        0.000E+00  
         BV                   


**** 04/26/22 19:55:31 ******* PSpice Lite (March 2016) ******* ID# 10813 ****

 Temperature Effect of I-V characteristics


 ****     DC TRANSFER CURVES               TEMPERATURE =    0.000 DEG C


******************************************************************************



  VD          I(VD)       
(*)----------   -1.5000E-02  -1.0000E-02  -5.0000E-03   0.0000E+00   5.0000E-03
                       _ _ _ _ _ _ _ _ _ _ _ _ _ _ _ _ _ _ _ _ _ _ _ _ _ _ _
  0.000E+00  0.000E+00 .            .            .            *            .
  2.000E-04 -2.012E-16 .            .            .            *            .
  4.000E-04 -4.023E-16 .            .            .            *            .
  6.000E-04 -6.035E-16 .            .            .            *            .
  8.000E-04 -8.047E-16 .            .            .            *            .
  1.000E-03 -1.006E-15 .            .            .            *            .
  1.200E-03 -1.207E-15 .            .            .            *            .
  1.400E-03 -1.408E-15 .            .            .            *            .
  1.600E-03 -1.609E-15 .            .            .            *            .
  1.800E-03 -1.811E-15 .            .            .            *            .
  2.000E-03 -2.012E-15 .            .            .            *            .
  2.200E-03 -2.213E-15 .            .            .            *            .
  2.400E-03 -2.414E-15 .            .            .            *            .
  2.600E-03 -2.616E-15 .            .            .            *            .
  2.800E-03 -2.817E-15 .            .            .            *            .
  3.000E-03 -3.018E-15 .            .            .            *            .
  3.200E-03 -3.220E-15 .            .            .            *            .
  3.400E-03 -3.421E-15 .            .            .            *            .
  3.600E-03 -3.622E-15 .            .            .            *            .
  3.800E-03 -3.824E-15 .            .            .            *            .
  4.000E-03 -4.025E-15 .            .            .            *            .
  4.200E-03 -4.226E-15 .            .            .            *            .
  4.400E-03 -4.428E-15 .            .            .            *            .
  4.600E-03 -4.629E-15 .            .            .            *            .
  4.800E-03 -4.830E-15 .            .            .            *            .
  5.000E-03 -5.032E-15 .            .            .            *            .
  5.200E-03 -5.233E-15 .            .            .            *            .
  5.400E-03 -5.435E-15 .            .            .            *            .
  5.600E-03 -5.636E-15 .            .            .            *            .
  5.800E-03 -5.837E-15 .            .            .            *            .
  6.000E-03 -6.039E-15 .            .            .            *            .
  6.200E-03 -6.240E-15 .            .            .            *            .
  6.400E-03 -6.442E-15 .            .            .            *            .
  6.600E-03 -6.643E-15 .            .            .            *            .
  6.800E-03 -6.845E-15 .            .            .            *            .
  7.000E-03 -7.046E-15 .            .            .            *            .
  7.200E-03 -7.248E-15 .            .            .            *            .
  7.400E-03 -7.449E-15 .            .            .            *            .
  7.600E-03 -7.651E-15 .            .            .            *            .
  7.800E-03 -7.853E-15 .            .            .            *            .
  8.000E-03 -8.054E-15 .            .            .            *            .
  8.200E-03 -8.256E-15 .            .            .            *            .
  8.400E-03 -8.457E-15 .            .            .            *            .
  8.600E-03 -8.659E-15 .            .            .            *            .
  8.800E-03 -8.861E-15 .            .            .            *            .
  9.000E-03 -9.062E-15 .            .            .            *            .
  9.200E-03 -9.264E-15 .            .            .            *            .
  9.400E-03 -9.465E-15 .            .            .            *            .
  9.600E-03 -9.667E-15 .            .            .            *            .
  9.800E-03 -9.869E-15 .            .            .            *            .
  1.000E-02 -1.007E-14 .            .            .            *            .
  1.020E-02 -1.027E-14 .            .            .            *            .
  1.040E-02 -1.047E-14 .            .            .            *            .
  1.060E-02 -1.068E-14 .            .            .            *            .
  1.080E-02 -1.088E-14 .            .            .            *            .
  1.100E-02 -1.108E-14 .            .            .            *            .
  1.120E-02 -1.128E-14 .            .            .            *            .
  1.140E-02 -1.148E-14 .            .            .            *            .
  1.160E-02 -1.168E-14 .            .            .            *            .
  1.180E-02 -1.189E-14 .            .            .            *            .
  1.200E-02 -1.209E-14 .            .            .            *            .
  1.220E-02 -1.229E-14 .            .            .            *            .
  1.240E-02 -1.249E-14 .            .            .            *            .
  1.260E-02 -1.269E-14 .            .            .            *            .
  1.280E-02 -1.290E-14 .            .            .            *            .
  1.300E-02 -1.310E-14 .            .            .            *            .
  1.320E-02 -1.330E-14 .            .            .            *            .
  1.340E-02 -1.350E-14 .            .            .            *            .
  1.360E-02 -1.370E-14 .            .            .            *            .
  1.380E-02 -1.391E-14 .            .            .            *            .
  1.400E-02 -1.411E-14 .            .            .            *            .
  1.420E-02 -1.431E-14 .            .            .            *            .
  1.440E-02 -1.451E-14 .            .            .            *            .
  1.460E-02 -1.471E-14 .            .            .            *            .
  1.480E-02 -1.492E-14 .            .            .            *            .
  1.500E-02 -1.512E-14 .            .            .            *            .
  1.520E-02 -1.532E-14 .            .            .            *            .
  1.540E-02 -1.552E-14 .            .            .            *            .
  1.560E-02 -1.572E-14 .            .            .            *            .
  1.580E-02 -1.593E-14 .            .            .            *            .
  1.600E-02 -1.613E-14 .            .            .            *            .
  1.620E-02 -1.633E-14 .            .            .            *            .
  1.640E-02 -1.653E-14 .            .            .            *            .
  1.660E-02 -1.674E-14 .            .            .            *            .
  1.680E-02 -1.694E-14 .            .            .            *            .
  1.700E-02 -1.714E-14 .            .            .            *            .
  1.720E-02 -1.734E-14 .            .            .            *            .
  1.740E-02 -1.754E-14 .            .            .            *            .
  1.760E-02 -1.775E-14 .            .            .            *            .
  1.780E-02 -1.795E-14 .            .            .            *            .
  1.800E-02 -1.815E-14 .            .            .            *            .
  1.820E-02 -1.835E-14 .            .            .            *            .
  1.840E-02 -1.856E-14 .            .            .            *            .
  1.860E-02 -1.876E-14 .            .            .            *            .
  1.880E-02 -1.896E-14 .            .            .            *            .
  1.900E-02 -1.916E-14 .            .            .            *            .
  1.920E-02 -1.937E-14 .            .            .            *            .
  1.940E-02 -1.957E-14 .            .            .            *            .
  1.960E-02 -1.977E-14 .            .            .            *            .
  1.980E-02 -1.997E-14 .            .            .            *            .
  2.000E-02 -2.018E-14 .            .            .            *            .
  2.020E-02 -2.038E-14 .            .            .            *            .
  2.040E-02 -2.058E-14 .            .            .            *            .
  2.060E-02 -2.078E-14 .            .            .            *            .
  2.080E-02 -2.099E-14 .            .            .            *            .
  2.100E-02 -2.119E-14 .            .            .            *            .
  2.120E-02 -2.139E-14 .            .            .            *            .
  2.140E-02 -2.159E-14 .            .            .            *            .
  2.160E-02 -2.180E-14 .            .            .            *            .
  2.180E-02 -2.200E-14 .            .            .            *            .
  2.200E-02 -2.220E-14 .            .            .            *            .
  2.220E-02 -2.240E-14 .            .            .            *            .
  2.240E-02 -2.261E-14 .            .            .            *            .
  2.260E-02 -2.281E-14 .            .            .            *            .
  2.280E-02 -2.301E-14 .            .            .            *            .
  2.300E-02 -2.322E-14 .            .            .            *            .
  2.320E-02 -2.342E-14 .            .            .            *            .
  2.340E-02 -2.362E-14 .            .            .            *            .
  2.360E-02 -2.382E-14 .            .            .            *            .
  2.380E-02 -2.403E-14 .            .            .            *            .
  2.400E-02 -2.423E-14 .            .            .            *            .
  2.420E-02 -2.443E-14 .            .            .            *            .
  2.440E-02 -2.464E-14 .            .            .            *            .
  2.460E-02 -2.484E-14 .            .            .            *            .
  2.480E-02 -2.504E-14 .            .            .            *            .
  2.500E-02 -2.525E-14 .            .            .            *            .
  2.520E-02 -2.545E-14 .            .            .            *            .
  2.540E-02 -2.565E-14 .            .            .            *            .
  2.560E-02 -2.586E-14 .            .            .            *            .
  2.580E-02 -2.606E-14 .            .            .            *            .
  2.600E-02 -2.626E-14 .            .            .            *            .
  2.620E-02 -2.647E-14 .            .            .            *            .
  2.640E-02 -2.667E-14 .            .            .            *            .
  2.660E-02 -2.687E-14 .            .            .            *            .
  2.680E-02 -2.707E-14 .            .            .            *            .
  2.700E-02 -2.728E-14 .            .            .            *            .
  2.720E-02 -2.748E-14 .            .            .            *            .
  2.740E-02 -2.769E-14 .            .            .            *            .
  2.760E-02 -2.789E-14 .            .            .            *            .
  2.780E-02 -2.809E-14 .            .            .            *            .
  2.800E-02 -2.830E-14 .            .            .            *            .
  2.820E-02 -2.850E-14 .            .            .            *            .
  2.840E-02 -2.870E-14 .            .            .            *            .
  2.860E-02 -2.891E-14 .            .            .            *            .
  2.880E-02 -2.911E-14 .            .            .            *            .
  2.900E-02 -2.931E-14 .            .            .            *            .
  2.920E-02 -2.952E-14 .            .            .            *            .
  2.940E-02 -2.972E-14 .            .            .            *            .
  2.960E-02 -2.992E-14 .            .            .            *            .
  2.980E-02 -3.013E-14 .            .            .            *            .
  3.000E-02 -3.033E-14 .            .            .            *            .
  3.020E-02 -3.054E-14 .            .            .            *            .
  3.040E-02 -3.074E-14 .            .            .            *            .
  3.060E-02 -3.094E-14 .            .            .            *            .
  3.080E-02 -3.115E-14 .            .            .            *            .
  3.100E-02 -3.135E-14 .            .            .            *            .
  3.120E-02 -3.156E-14 .            .            .            *            .
  3.140E-02 -3.176E-14 .            .            .            *            .
  3.160E-02 -3.196E-14 .            .            .            *            .
  3.180E-02 -3.217E-14 .            .            .            *            .
  3.200E-02 -3.237E-14 .            .            .            *            .
  3.220E-02 -3.258E-14 .            .            .            *            .
  3.240E-02 -3.278E-14 .            .            .            *            .
  3.260E-02 -3.298E-14 .            .            .            *            .
  3.280E-02 -3.319E-14 .            .            .            *            .
  3.300E-02 -3.339E-14 .            .            .            *            .
  3.320E-02 -3.360E-14 .            .            .            *            .
  3.340E-02 -3.380E-14 .            .            .            *            .
  3.360E-02 -3.401E-14 .            .            .            *            .
  3.380E-02 -3.421E-14 .            .            .            *            .
  3.400E-02 -3.441E-14 .            .            .            *            .
  3.420E-02 -3.462E-14 .            .            .            *            .
  3.440E-02 -3.482E-14 .            .            .            *            .
  3.460E-02 -3.503E-14 .            .            .            *            .
  3.480E-02 -3.523E-14 .            .            .            *            .
  3.500E-02 -3.544E-14 .            .            .            *            .
  3.520E-02 -3.564E-14 .            .            .            *            .
  3.540E-02 -3.585E-14 .            .            .            *            .
  3.560E-02 -3.605E-14 .            .            .            *            .
  3.580E-02 -3.626E-14 .            .            .            *            .
  3.600E-02 -3.646E-14 .            .            .            *            .
  3.620E-02 -3.667E-14 .            .            .            *            .
  3.640E-02 -3.687E-14 .            .            .            *            .
  3.660E-02 -3.707E-14 .            .            .            *            .
  3.680E-02 -3.728E-14 .            .            .            *            .
  3.700E-02 -3.748E-14 .            .            .            *            .
  3.720E-02 -3.769E-14 .            .            .            *            .
  3.740E-02 -3.789E-14 .            .            .            *            .
  3.760E-02 -3.810E-14 .            .            .            *            .
  3.780E-02 -3.831E-14 .            .            .            *            .
  3.800E-02 -3.851E-14 .            .            .            *            .
  3.820E-02 -3.872E-14 .            .            .            *            .
  3.840E-02 -3.892E-14 .            .            .            *            .
  3.860E-02 -3.913E-14 .            .            .            *            .
  3.880E-02 -3.933E-14 .            .            .            *            .
  3.900E-02 -3.954E-14 .            .            .            *            .
  3.920E-02 -3.974E-14 .            .            .            *            .
  3.940E-02 -3.995E-14 .            .            .            *            .
  3.960E-02 -4.015E-14 .            .            .            *            .
  3.980E-02 -4.036E-14 .            .            .            *            .
  4.000E-02 -4.056E-14 .            .            .            *            .
  4.020E-02 -4.077E-14 .            .            .            *            .
  4.040E-02 -4.098E-14 .            .            .            *            .
  4.060E-02 -4.118E-14 .            .            .            *            .
  4.080E-02 -4.139E-14 .            .            .            *            .
  4.100E-02 -4.159E-14 .            .            .            *            .
  4.120E-02 -4.180E-14 .            .            .            *            .
  4.140E-02 -4.201E-14 .            .            .            *            .
  4.160E-02 -4.221E-14 .            .            .            *            .
  4.180E-02 -4.242E-14 .            .            .            *            .
  4.200E-02 -4.262E-14 .            .            .            *            .
  4.220E-02 -4.283E-14 .            .            .            *            .
  4.240E-02 -4.304E-14 .            .            .            *            .
  4.260E-02 -4.324E-14 .            .            .            *            .
  4.280E-02 -4.345E-14 .            .            .            *            .
  4.300E-02 -4.365E-14 .            .            .            *            .
  4.320E-02 -4.386E-14 .            .            .            *            .
  4.340E-02 -4.407E-14 .            .            .            *            .
  4.360E-02 -4.427E-14 .            .            .            *            .
  4.380E-02 -4.448E-14 .            .            .            *            .
  4.400E-02 -4.469E-14 .            .            .            *            .
  4.420E-02 -4.489E-14 .            .            .            *            .
  4.440E-02 -4.510E-14 .            .            .            *            .
  4.460E-02 -4.531E-14 .            .            .            *            .
  4.480E-02 -4.551E-14 .            .            .            *            .
  4.500E-02 -4.572E-14 .            .            .            *            .
  4.520E-02 -4.593E-14 .            .            .            *            .
  4.540E-02 -4.613E-14 .            .            .            *            .
  4.560E-02 -4.634E-14 .            .            .            *            .
  4.580E-02 -4.655E-14 .            .            .            *            .
  4.600E-02 -4.676E-14 .            .            .            *            .
  4.620E-02 -4.696E-14 .            .            .            *            .
  4.640E-02 -4.717E-14 .            .            .            *            .
  4.660E-02 -4.738E-14 .            .            .            *            .
  4.680E-02 -4.758E-14 .            .            .            *            .
  4.700E-02 -4.779E-14 .            .            .            *            .
  4.720E-02 -4.800E-14 .            .            .            *            .
  4.740E-02 -4.821E-14 .            .            .            *            .
  4.760E-02 -4.841E-14 .            .            .            *            .
  4.780E-02 -4.862E-14 .            .            .            *            .
  4.800E-02 -4.883E-14 .            .            .            *            .
  4.820E-02 -4.904E-14 .            .            .            *            .
  4.840E-02 -4.925E-14 .            .            .            *            .
  4.860E-02 -4.945E-14 .            .            .            *            .
  4.880E-02 -4.966E-14 .            .            .            *            .
  4.900E-02 -4.987E-14 .            .            .            *            .
  4.920E-02 -5.008E-14 .            .            .            *            .
  4.940E-02 -5.029E-14 .            .            .            *            .
  4.960E-02 -5.049E-14 .            .            .            *            .
  4.980E-02 -5.070E-14 .            .            .            *            .
  5.000E-02 -5.091E-14 .            .            .            *            .
  5.020E-02 -5.112E-14 .            .            .            *            .
  5.040E-02 -5.133E-14 .            .            .            *            .
  5.060E-02 -5.154E-14 .            .            .            *            .
  5.080E-02 -5.175E-14 .            .            .            *            .
  5.100E-02 -5.195E-14 .            .            .            *            .
  5.120E-02 -5.216E-14 .            .            .            *            .
  5.140E-02 -5.237E-14 .            .            .            *            .
  5.160E-02 -5.258E-14 .            .            .            *            .
  5.180E-02 -5.279E-14 .            .            .            *            .
  5.200E-02 -5.300E-14 .            .            .            *            .
  5.220E-02 -5.321E-14 .            .            .            *            .
  5.240E-02 -5.342E-14 .            .            .            *            .
  5.260E-02 -5.363E-14 .            .            .            *            .
  5.280E-02 -5.384E-14 .            .            .            *            .
  5.300E-02 -5.404E-14 .            .            .            *            .
  5.320E-02 -5.425E-14 .            .            .            *            .
  5.340E-02 -5.446E-14 .            .            .            *            .
  5.360E-02 -5.467E-14 .            .            .            *            .
  5.380E-02 -5.488E-14 .            .            .            *            .
  5.400E-02 -5.509E-14 .            .            .            *            .
  5.420E-02 -5.530E-14 .            .            .            *            .
  5.440E-02 -5.551E-14 .            .            .            *            .
  5.460E-02 -5.572E-14 .            .            .            *            .
  5.480E-02 -5.593E-14 .            .            .            *            .
  5.500E-02 -5.614E-14 .            .            .            *            .
  5.520E-02 -5.635E-14 .            .            .            *            .
  5.540E-02 -5.656E-14 .            .            .            *            .
  5.560E-02 -5.677E-14 .            .            .            *            .
  5.580E-02 -5.698E-14 .            .            .            *            .
  5.600E-02 -5.720E-14 .            .            .            *            .
  5.620E-02 -5.741E-14 .            .            .            *            .
  5.640E-02 -5.762E-14 .            .            .            *            .
  5.660E-02 -5.783E-14 .            .            .            *            .
  5.680E-02 -5.804E-14 .            .            .            *            .
  5.700E-02 -5.825E-14 .            .            .            *            .
  5.720E-02 -5.846E-14 .            .            .            *            .
  5.740E-02 -5.867E-14 .            .            .            *            .
  5.760E-02 -5.888E-14 .            .            .            *            .
  5.780E-02 -5.910E-14 .            .            .            *            .
  5.800E-02 -5.931E-14 .            .            .            *            .
  5.820E-02 -5.952E-14 .            .            .            *            .
  5.840E-02 -5.973E-14 .            .            .            *            .
  5.860E-02 -5.994E-14 .            .            .            *            .
  5.880E-02 -6.015E-14 .            .            .            *            .
  5.900E-02 -6.037E-14 .            .            .            *            .
  5.920E-02 -6.058E-14 .            .            .            *            .
  5.940E-02 -6.079E-14 .            .            .            *            .
  5.960E-02 -6.100E-14 .            .            .            *            .
  5.980E-02 -6.121E-14 .            .            .            *            .
  6.000E-02 -6.143E-14 .            .            .            *            .
  6.020E-02 -6.164E-14 .            .            .            *            .
  6.040E-02 -6.185E-14 .            .            .            *            .
  6.060E-02 -6.206E-14 .            .            .            *            .
  6.080E-02 -6.228E-14 .            .            .            *            .
  6.100E-02 -6.249E-14 .            .            .            *            .
  6.120E-02 -6.270E-14 .            .            .            *            .
  6.140E-02 -6.292E-14 .            .            .            *            .
  6.160E-02 -6.313E-14 .            .            .            *            .
  6.180E-02 -6.334E-14 .            .            .            *            .
  6.200E-02 -6.356E-14 .            .            .            *            .
  6.220E-02 -6.377E-14 .            .            .            *            .
  6.240E-02 -6.398E-14 .            .            .            *            .
  6.260E-02 -6.420E-14 .            .            .            *            .
  6.280E-02 -6.441E-14 .            .            .            *            .
  6.300E-02 -6.463E-14 .            .            .            *            .
  6.320E-02 -6.484E-14 .            .            .            *            .
  6.340E-02 -6.505E-14 .            .            .            *            .
  6.360E-02 -6.527E-14 .            .            .            *            .
  6.380E-02 -6.548E-14 .            .            .            *            .
  6.400E-02 -6.570E-14 .            .            .            *            .
  6.420E-02 -6.591E-14 .            .            .            *            .
  6.440E-02 -6.613E-14 .            .            .            *            .
  6.460E-02 -6.634E-14 .            .            .            *            .
  6.480E-02 -6.656E-14 .            .            .            *            .
  6.500E-02 -6.677E-14 .            .            .            *            .
  6.520E-02 -6.699E-14 .            .            .            *            .
  6.540E-02 -6.720E-14 .            .            .            *            .
  6.560E-02 -6.742E-14 .            .            .            *            .
  6.580E-02 -6.763E-14 .            .            .            *            .
  6.600E-02 -6.785E-14 .            .            .            *            .
  6.620E-02 -6.807E-14 .            .            .            *            .
  6.640E-02 -6.828E-14 .            .            .            *            .
  6.660E-02 -6.850E-14 .            .            .            *            .
  6.680E-02 -6.872E-14 .            .            .            *            .
  6.700E-02 -6.893E-14 .            .            .            *            .
  6.720E-02 -6.915E-14 .            .            .            *            .
  6.740E-02 -6.936E-14 .            .            .            *            .
  6.760E-02 -6.958E-14 .            .            .            *            .
  6.780E-02 -6.980E-14 .            .            .            *            .
  6.800E-02 -7.002E-14 .            .            .            *            .
  6.820E-02 -7.023E-14 .            .            .            *            .
  6.840E-02 -7.045E-14 .            .            .            *            .
  6.860E-02 -7.067E-14 .            .            .            *            .
  6.880E-02 -7.089E-14 .            .            .            *            .
  6.900E-02 -7.110E-14 .            .            .            *            .
  6.920E-02 -7.132E-14 .            .            .            *            .
  6.940E-02 -7.154E-14 .            .            .            *            .
  6.960E-02 -7.176E-14 .            .            .            *            .
  6.980E-02 -7.198E-14 .            .            .            *            .
  7.000E-02 -7.219E-14 .            .            .            *            .
  7.020E-02 -7.241E-14 .            .            .            *            .
  7.040E-02 -7.263E-14 .            .            .            *            .
  7.060E-02 -7.285E-14 .            .            .            *            .
  7.080E-02 -7.307E-14 .            .            .            *            .
  7.100E-02 -7.329E-14 .            .            .            *            .
  7.120E-02 -7.351E-14 .            .            .            *            .
  7.140E-02 -7.373E-14 .            .            .            *            .
  7.160E-02 -7.395E-14 .            .            .            *            .
  7.180E-02 -7.417E-14 .            .            .            *            .
  7.200E-02 -7.439E-14 .            .            .            *            .
  7.220E-02 -7.461E-14 .            .            .            *            .
  7.240E-02 -7.483E-14 .            .            .            *            .
  7.260E-02 -7.505E-14 .            .            .            *            .
  7.280E-02 -7.527E-14 .            .            .            *            .
  7.300E-02 -7.549E-14 .            .            .            *            .
  7.320E-02 -7.571E-14 .            .            .            *            .
  7.340E-02 -7.593E-14 .            .            .            *            .
  7.360E-02 -7.616E-14 .            .            .            *            .
  7.380E-02 -7.638E-14 .            .            .            *            .
  7.400E-02 -7.660E-14 .            .            .            *            .
  7.420E-02 -7.682E-14 .            .            .            *            .
  7.440E-02 -7.704E-14 .            .            .            *            .
  7.460E-02 -7.726E-14 .            .            .            *            .
  7.480E-02 -7.749E-14 .            .            .            *            .
  7.500E-02 -7.771E-14 .            .            .            *            .
  7.520E-02 -7.793E-14 .            .            .            *            .
  7.540E-02 -7.816E-14 .            .            .            *            .
  7.560E-02 -7.838E-14 .            .            .            *            .
  7.580E-02 -7.860E-14 .            .            .            *            .
  7.600E-02 -7.883E-14 .            .            .            *            .
  7.620E-02 -7.905E-14 .            .            .            *            .
  7.640E-02 -7.927E-14 .            .            .            *            .
  7.660E-02 -7.950E-14 .            .            .            *            .
  7.680E-02 -7.972E-14 .            .            .            *            .
  7.700E-02 -7.995E-14 .            .            .            *            .
  7.720E-02 -8.017E-14 .            .            .            *            .
  7.740E-02 -8.040E-14 .            .            .            *            .
  7.760E-02 -8.062E-14 .            .            .            *            .
  7.780E-02 -8.085E-14 .            .            .            *            .
  7.800E-02 -8.107E-14 .            .            .            *            .
  7.820E-02 -8.130E-14 .            .            .            *            .
  7.840E-02 -8.152E-14 .            .            .            *            .
  7.860E-02 -8.175E-14 .            .            .            *            .
  7.880E-02 -8.198E-14 .            .            .            *            .
  7.900E-02 -8.220E-14 .            .            .            *            .
  7.920E-02 -8.243E-14 .            .            .            *            .
  7.940E-02 -8.266E-14 .            .            .            *            .
  7.960E-02 -8.288E-14 .            .            .            *            .
  7.980E-02 -8.311E-14 .            .            .            *            .
  8.000E-02 -8.334E-14 .            .            .            *            .
  8.020E-02 -8.357E-14 .            .            .            *            .
  8.040E-02 -8.379E-14 .            .            .            *            .
  8.060E-02 -8.402E-14 .            .            .            *            .
  8.080E-02 -8.425E-14 .            .            .            *            .
  8.100E-02 -8.448E-14 .            .            .            *            .
  8.120E-02 -8.471E-14 .            .            .            *            .
  8.140E-02 -8.494E-14 .            .            .            *            .
  8.160E-02 -8.517E-14 .            .            .            *            .
  8.180E-02 -8.540E-14 .            .            .            *            .
  8.200E-02 -8.563E-14 .            .            .            *            .
  8.220E-02 -8.586E-14 .            .            .            *            .
  8.240E-02 -8.609E-14 .            .            .            *            .
  8.260E-02 -8.632E-14 .            .            .            *            .
  8.280E-02 -8.655E-14 .            .            .            *            .
  8.300E-02 -8.678E-14 .            .            .            *            .
  8.320E-02 -8.701E-14 .            .            .            *            .
  8.340E-02 -8.724E-14 .            .            .            *            .
  8.360E-02 -8.747E-14 .            .            .            *            .
  8.380E-02 -8.771E-14 .            .            .            *            .
  8.400E-02 -8.794E-14 .            .            .            *            .
  8.420E-02 -8.817E-14 .            .            .            *            .
  8.440E-02 -8.840E-14 .            .            .            *            .
  8.460E-02 -8.864E-14 .            .            .            *            .
  8.480E-02 -8.887E-14 .            .            .            *            .
  8.500E-02 -8.910E-14 .            .            .            *            .
  8.520E-02 -8.934E-14 .            .            .            *            .
  8.540E-02 -8.957E-14 .            .            .            *            .
  8.560E-02 -8.981E-14 .            .            .            *            .
  8.580E-02 -9.004E-14 .            .            .            *            .
  8.600E-02 -9.028E-14 .            .            .            *            .
  8.620E-02 -9.051E-14 .            .            .            *            .
  8.640E-02 -9.075E-14 .            .            .            *            .
  8.660E-02 -9.098E-14 .            .            .            *            .
  8.680E-02 -9.122E-14 .            .            .            *            .
  8.700E-02 -9.146E-14 .            .            .            *            .
  8.720E-02 -9.169E-14 .            .            .            *            .
  8.740E-02 -9.193E-14 .            .            .            *            .
  8.760E-02 -9.217E-14 .            .            .            *            .
  8.780E-02 -9.241E-14 .            .            .            *            .
  8.800E-02 -9.264E-14 .            .            .            *            .
  8.820E-02 -9.288E-14 .            .            .            *            .
  8.840E-02 -9.312E-14 .            .            .            *            .
  8.860E-02 -9.336E-14 .            .            .            *            .
  8.880E-02 -9.360E-14 .            .            .            *            .
  8.900E-02 -9.384E-14 .            .            .            *            .
  8.920E-02 -9.408E-14 .            .            .            *            .
  8.940E-02 -9.432E-14 .            .            .            *            .
  8.960E-02 -9.456E-14 .            .            .            *            .
  8.980E-02 -9.480E-14 .            .            .            *            .
  9.000E-02 -9.504E-14 .            .            .            *            .
  9.020E-02 -9.528E-14 .            .            .            *            .
  9.040E-02 -9.552E-14 .            .            .            *            .
  9.060E-02 -9.577E-14 .            .            .            *            .
  9.080E-02 -9.601E-14 .            .            .            *            .
  9.100E-02 -9.625E-14 .            .            .            *            .
  9.120E-02 -9.649E-14 .            .            .            *            .
  9.140E-02 -9.674E-14 .            .            .            *            .
  9.160E-02 -9.698E-14 .            .            .            *            .
  9.180E-02 -9.723E-14 .            .            .            *            .
  9.200E-02 -9.747E-14 .            .            .            *            .
  9.220E-02 -9.771E-14 .            .            .            *            .
  9.240E-02 -9.796E-14 .            .            .            *            .
  9.260E-02 -9.821E-14 .            .            .            *            .
  9.280E-02 -9.845E-14 .            .            .            *            .
  9.300E-02 -9.870E-14 .            .            .            *            .
  9.320E-02 -9.894E-14 .            .            .            *            .
  9.340E-02 -9.919E-14 .            .            .            *            .
  9.360E-02 -9.944E-14 .            .            .            *            .
  9.380E-02 -9.969E-14 .            .            .            *            .
  9.400E-02 -9.993E-14 .            .            .            *            .
  9.420E-02 -1.002E-13 .            .            .            *            .
  9.440E-02 -1.004E-13 .            .            .            *            .
  9.460E-02 -1.007E-13 .            .            .            *            .
  9.480E-02 -1.009E-13 .            .            .            *            .
  9.500E-02 -1.012E-13 .            .            .            *            .
  9.520E-02 -1.014E-13 .            .            .            *            .
  9.540E-02 -1.017E-13 .            .            .            *            .
  9.560E-02 -1.019E-13 .            .            .            *            .
  9.580E-02 -1.022E-13 .            .            .            *            .
  9.600E-02 -1.024E-13 .            .            .            *            .
  9.620E-02 -1.027E-13 .            .            .            *            .
  9.640E-02 -1.029E-13 .            .            .            *            .
  9.660E-02 -1.032E-13 .            .            .            *            .
  9.680E-02 -1.035E-13 .            .            .            *            .
  9.700E-02 -1.037E-13 .            .            .            *            .
  9.720E-02 -1.040E-13 .            .            .            *            .
  9.740E-02 -1.042E-13 .            .            .            *            .
  9.760E-02 -1.045E-13 .            .            .            *            .
  9.780E-02 -1.047E-13 .            .            .            *            .
  9.800E-02 -1.050E-13 .            .            .            *            .
  9.820E-02 -1.052E-13 .            .            .            *            .
  9.840E-02 -1.055E-13 .            .            .            *            .
  9.860E-02 -1.058E-13 .            .            .            *            .
  9.880E-02 -1.060E-13 .            .            .            *            .
  9.900E-02 -1.063E-13 .            .            .            *            .
  9.920E-02 -1.065E-13 .            .            .            *            .
  9.940E-02 -1.068E-13 .            .            .            *            .
  9.960E-02 -1.071E-13 .            .            .            *            .
  9.980E-02 -1.073E-13 .            .            .            *            .
  1.000E-01 -1.076E-13 .            .            .            *            .
  1.002E-01 -1.078E-13 .            .            .            *            .
  1.004E-01 -1.081E-13 .            .            .            *            .
  1.006E-01 -1.084E-13 .            .            .            *            .
  1.008E-01 -1.086E-13 .            .            .            *            .
  1.010E-01 -1.089E-13 .            .            .            *            .
  1.012E-01 -1.092E-13 .            .            .            *            .
  1.014E-01 -1.094E-13 .            .            .            *            .
  1.016E-01 -1.097E-13 .            .            .            *            .
  1.018E-01 -1.099E-13 .            .            .            *            .
  1.020E-01 -1.102E-13 .            .            .            *            .
  1.022E-01 -1.105E-13 .            .            .            *            .
  1.024E-01 -1.107E-13 .            .            .            *            .
  1.026E-01 -1.110E-13 .            .            .            *            .
  1.028E-01 -1.113E-13 .            .            .            *            .
  1.030E-01 -1.116E-13 .            .            .            *            .
  1.032E-01 -1.118E-13 .            .            .            *            .
  1.034E-01 -1.121E-13 .            .            .            *            .
  1.036E-01 -1.124E-13 .            .            .            *            .
  1.038E-01 -1.126E-13 .            .            .            *            .
  1.040E-01 -1.129E-13 .            .            .            *            .
  1.042E-01 -1.132E-13 .            .            .            *            .
  1.044E-01 -1.135E-13 .            .            .            *            .
  1.046E-01 -1.137E-13 .            .            .            *            .
  1.048E-01 -1.140E-13 .            .            .            *            .
  1.050E-01 -1.143E-13 .            .            .            *            .
  1.052E-01 -1.145E-13 .            .            .            *            .
  1.054E-01 -1.148E-13 .            .            .            *            .
  1.056E-01 -1.151E-13 .            .            .            *            .
  1.058E-01 -1.154E-13 .            .            .            *            .
  1.060E-01 -1.157E-13 .            .            .            *            .
  1.062E-01 -1.159E-13 .            .            .            *            .
  1.064E-01 -1.162E-13 .            .            .            *            .
  1.066E-01 -1.165E-13 .            .            .            *            .
  1.068E-01 -1.168E-13 .            .            .            *            .
  1.070E-01 -1.171E-13 .            .            .            *            .
  1.072E-01 -1.173E-13 .            .            .            *            .
  1.074E-01 -1.176E-13 .            .            .            *            .
  1.076E-01 -1.179E-13 .            .            .            *            .
  1.078E-01 -1.182E-13 .            .            .            *            .
  1.080E-01 -1.185E-13 .            .            .            *            .
  1.082E-01 -1.188E-13 .            .            .            *            .
  1.084E-01 -1.190E-13 .            .            .            *            .
  1.086E-01 -1.193E-13 .            .            .            *            .
  1.088E-01 -1.196E-13 .            .            .            *            .
  1.090E-01 -1.199E-13 .            .            .            *            .
  1.092E-01 -1.202E-13 .            .            .            *            .
  1.094E-01 -1.205E-13 .            .            .            *            .
  1.096E-01 -1.208E-13 .            .            .            *            .
  1.098E-01 -1.211E-13 .            .            .            *            .
  1.100E-01 -1.213E-13 .            .            .            *            .
  1.102E-01 -1.216E-13 .            .            .            *            .
  1.104E-01 -1.219E-13 .            .            .            *            .
  1.106E-01 -1.222E-13 .            .            .            *            .
  1.108E-01 -1.225E-13 .            .            .            *            .
  1.110E-01 -1.228E-13 .            .            .            *            .
  1.112E-01 -1.231E-13 .            .            .            *            .
  1.114E-01 -1.234E-13 .            .            .            *            .
  1.116E-01 -1.237E-13 .            .            .            *            .
  1.118E-01 -1.240E-13 .            .            .            *            .
  1.120E-01 -1.243E-13 .            .            .            *            .
  1.122E-01 -1.246E-13 .            .            .            *            .
  1.124E-01 -1.249E-13 .            .            .            *            .
  1.126E-01 -1.252E-13 .            .            .            *            .
  1.128E-01 -1.255E-13 .            .            .            *            .
  1.130E-01 -1.258E-13 .            .            .            *            .
  1.132E-01 -1.261E-13 .            .            .            *            .
  1.134E-01 -1.264E-13 .            .            .            *            .
  1.136E-01 -1.267E-13 .            .            .            *            .
  1.138E-01 -1.270E-13 .            .            .            *            .
  1.140E-01 -1.273E-13 .            .            .            *            .
  1.142E-01 -1.276E-13 .            .            .            *            .
  1.144E-01 -1.279E-13 .            .            .            *            .
  1.146E-01 -1.283E-13 .            .            .            *            .
  1.148E-01 -1.286E-13 .            .            .            *            .
  1.150E-01 -1.289E-13 .            .            .            *            .
  1.152E-01 -1.292E-13 .            .            .            *            .
  1.154E-01 -1.295E-13 .            .            .            *            .
  1.156E-01 -1.298E-13 .            .            .            *            .
  1.158E-01 -1.301E-13 .            .            .            *            .
  1.160E-01 -1.304E-13 .            .            .            *            .
  1.162E-01 -1.308E-13 .            .            .            *            .
  1.164E-01 -1.311E-13 .            .            .            *            .
  1.166E-01 -1.314E-13 .            .            .            *            .
  1.168E-01 -1.317E-13 .            .            .            *            .
  1.170E-01 -1.320E-13 .            .            .            *            .
  1.172E-01 -1.324E-13 .            .            .            *            .
  1.174E-01 -1.327E-13 .            .            .            *            .
  1.176E-01 -1.330E-13 .            .            .            *            .
  1.178E-01 -1.333E-13 .            .            .            *            .
  1.180E-01 -1.337E-13 .            .            .            *            .
  1.182E-01 -1.340E-13 .            .            .            *            .
  1.184E-01 -1.343E-13 .            .            .            *            .
  1.186E-01 -1.346E-13 .            .            .            *            .
  1.188E-01 -1.350E-13 .            .            .            *            .
  1.190E-01 -1.353E-13 .            .            .            *            .
  1.192E-01 -1.356E-13 .            .            .            *            .
  1.194E-01 -1.360E-13 .            .            .            *            .
  1.196E-01 -1.363E-13 .            .            .            *            .
  1.198E-01 -1.366E-13 .            .            .            *            .
  1.200E-01 -1.370E-13 .            .            .            *            .
  1.202E-01 -1.373E-13 .            .            .            *            .
  1.204E-01 -1.376E-13 .            .            .            *            .
  1.206E-01 -1.380E-13 .            .            .            *            .
  1.208E-01 -1.383E-13 .            .            .            *            .
  1.210E-01 -1.387E-13 .            .            .            *            .
  1.212E-01 -1.390E-13 .            .            .            *            .
  1.214E-01 -1.393E-13 .            .            .            *            .
  1.216E-01 -1.397E-13 .            .            .            *            .
  1.218E-01 -1.400E-13 .            .            .            *            .
  1.220E-01 -1.404E-13 .            .            .            *            .
  1.222E-01 -1.407E-13 .            .            .            *            .
  1.224E-01 -1.411E-13 .            .            .            *            .
  1.226E-01 -1.414E-13 .            .            .            *            .
  1.228E-01 -1.418E-13 .            .            .            *            .
  1.230E-01 -1.421E-13 .            .            .            *            .
  1.232E-01 -1.425E-13 .            .            .            *            .
  1.234E-01 -1.428E-13 .            .            .            *            .
  1.236E-01 -1.432E-13 .            .            .            *            .
  1.238E-01 -1.436E-13 .            .            .            *            .
  1.240E-01 -1.439E-13 .            .            .            *            .
  1.242E-01 -1.443E-13 .            .            .            *            .
  1.244E-01 -1.446E-13 .            .            .            *            .
  1.246E-01 -1.450E-13 .            .            .            *            .
  1.248E-01 -1.454E-13 .            .            .            *            .
  1.250E-01 -1.457E-13 .            .            .            *            .
  1.252E-01 -1.461E-13 .            .            .            *            .
  1.254E-01 -1.465E-13 .            .            .            *            .
  1.256E-01 -1.468E-13 .            .            .            *            .
  1.258E-01 -1.472E-13 .            .            .            *            .
  1.260E-01 -1.476E-13 .            .            .            *            .
  1.262E-01 -1.480E-13 .            .            .            *            .
  1.264E-01 -1.483E-13 .            .            .            *            .
  1.266E-01 -1.487E-13 .            .            .            *            .
  1.268E-01 -1.491E-13 .            .            .            *            .
  1.270E-01 -1.495E-13 .            .            .            *            .
  1.272E-01 -1.498E-13 .            .            .            *            .
  1.274E-01 -1.502E-13 .            .            .            *            .
  1.276E-01 -1.506E-13 .            .            .            *            .
  1.278E-01 -1.510E-13 .            .            .            *            .
  1.280E-01 -1.514E-13 .            .            .            *            .
  1.282E-01 -1.518E-13 .            .            .            *            .
  1.284E-01 -1.522E-13 .            .            .            *            .
  1.286E-01 -1.525E-13 .            .            .            *            .
  1.288E-01 -1.529E-13 .            .            .            *            .
  1.290E-01 -1.533E-13 .            .            .            *            .
  1.292E-01 -1.537E-13 .            .            .            *            .
  1.294E-01 -1.541E-13 .            .            .            *            .
  1.296E-01 -1.545E-13 .            .            .            *            .
  1.298E-01 -1.549E-13 .            .            .            *            .
  1.300E-01 -1.553E-13 .            .            .            *            .
  1.302E-01 -1.557E-13 .            .            .            *            .
  1.304E-01 -1.561E-13 .            .            .            *            .
  1.306E-01 -1.565E-13 .            .            .            *            .
  1.308E-01 -1.570E-13 .            .            .            *            .
  1.310E-01 -1.574E-13 .            .            .            *            .
  1.312E-01 -1.578E-13 .            .            .            *            .
  1.314E-01 -1.582E-13 .            .            .            *            .
  1.316E-01 -1.586E-13 .            .            .            *            .
  1.318E-01 -1.590E-13 .            .            .            *            .
  1.320E-01 -1.594E-13 .            .            .            *            .
  1.322E-01 -1.599E-13 .            .            .            *            .
  1.324E-01 -1.603E-13 .            .            .            *            .
  1.326E-01 -1.607E-13 .            .            .            *            .
  1.328E-01 -1.611E-13 .            .            .            *            .
  1.330E-01 -1.616E-13 .            .            .            *            .
  1.332E-01 -1.620E-13 .            .            .            *            .
  1.334E-01 -1.624E-13 .            .            .            *            .
  1.336E-01 -1.629E-13 .            .            .            *            .
  1.338E-01 -1.633E-13 .            .            .            *            .
  1.340E-01 -1.637E-13 .            .            .            *            .
  1.342E-01 -1.642E-13 .            .            .            *            .
  1.344E-01 -1.646E-13 .            .            .            *            .
  1.346E-01 -1.650E-13 .            .            .            *            .
  1.348E-01 -1.655E-13 .            .            .            *            .
  1.350E-01 -1.659E-13 .            .            .            *            .
  1.352E-01 -1.664E-13 .            .            .            *            .
  1.354E-01 -1.668E-13 .            .            .            *            .
  1.356E-01 -1.673E-13 .            .            .            *            .
  1.358E-01 -1.677E-13 .            .            .            *            .
  1.360E-01 -1.682E-13 .            .            .            *            .
  1.362E-01 -1.687E-13 .            .            .            *            .
  1.364E-01 -1.691E-13 .            .            .            *            .
  1.366E-01 -1.696E-13 .            .            .            *            .
  1.368E-01 -1.700E-13 .            .            .            *            .
  1.370E-01 -1.705E-13 .            .            .            *            .
  1.372E-01 -1.710E-13 .            .            .            *            .
  1.374E-01 -1.715E-13 .            .            .            *            .
  1.376E-01 -1.719E-13 .            .            .            *            .
  1.378E-01 -1.724E-13 .            .            .            *            .
  1.380E-01 -1.729E-13 .            .            .            *            .
  1.382E-01 -1.734E-13 .            .            .            *            .
  1.384E-01 -1.738E-13 .            .            .            *            .
  1.386E-01 -1.743E-13 .            .            .            *            .
  1.388E-01 -1.748E-13 .            .            .            *            .
  1.390E-01 -1.753E-13 .            .            .            *            .
  1.392E-01 -1.758E-13 .            .            .            *            .
  1.394E-01 -1.763E-13 .            .            .            *            .
  1.396E-01 -1.768E-13 .            .            .            *            .
  1.398E-01 -1.773E-13 .            .            .            *            .
  1.400E-01 -1.778E-13 .            .            .            *            .
  1.402E-01 -1.783E-13 .            .            .            *            .
  1.404E-01 -1.788E-13 .            .            .            *            .
  1.406E-01 -1.793E-13 .            .            .            *            .
  1.408E-01 -1.798E-13 .            .            .            *            .
  1.410E-01 -1.803E-13 .            .            .            *            .
  1.412E-01 -1.808E-13 .            .            .            *            .
  1.414E-01 -1.814E-13 .            .            .            *            .
  1.416E-01 -1.819E-13 .            .            .            *            .
  1.418E-01 -1.824E-13 .            .            .            *            .
  1.420E-01 -1.829E-13 .            .            .            *            .
  1.422E-01 -1.835E-13 .            .            .            *            .
  1.424E-01 -1.840E-13 .            .            .            *            .
  1.426E-01 -1.845E-13 .            .            .            *            .
  1.428E-01 -1.851E-13 .            .            .            *            .
  1.430E-01 -1.856E-13 .            .            .            *            .
  1.432E-01 -1.861E-13 .            .            .            *            .
  1.434E-01 -1.867E-13 .            .            .            *            .
  1.436E-01 -1.872E-13 .            .            .            *            .
  1.438E-01 -1.878E-13 .            .            .            *            .
  1.440E-01 -1.883E-13 .            .            .            *            .
  1.442E-01 -1.889E-13 .            .            .            *            .
  1.444E-01 -1.894E-13 .            .            .            *            .
  1.446E-01 -1.900E-13 .            .            .            *            .
  1.448E-01 -1.906E-13 .            .            .            *            .
  1.450E-01 -1.911E-13 .            .            .            *            .
  1.452E-01 -1.917E-13 .            .            .            *            .
  1.454E-01 -1.923E-13 .            .            .            *            .
  1.456E-01 -1.928E-13 .            .            .            *            .
  1.458E-01 -1.934E-13 .            .            .            *            .
  1.460E-01 -1.940E-13 .            .            .            *            .
  1.462E-01 -1.946E-13 .            .            .            *            .
  1.464E-01 -1.952E-13 .            .            .            *            .
  1.466E-01 -1.958E-13 .            .            .            *            .
  1.468E-01 -1.964E-13 .            .            .            *            .
  1.470E-01 -1.970E-13 .            .            .            *            .
  1.472E-01 -1.976E-13 .            .            .            *            .
  1.474E-01 -1.982E-13 .            .            .            *            .
  1.476E-01 -1.988E-13 .            .            .            *            .
  1.478E-01 -1.994E-13 .            .            .            *            .
  1.480E-01 -2.000E-13 .            .            .            *            .
  1.482E-01 -2.006E-13 .            .            .            *            .
  1.484E-01 -2.012E-13 .            .            .            *            .
  1.486E-01 -2.019E-13 .            .            .            *            .
  1.488E-01 -2.025E-13 .            .            .            *            .
  1.490E-01 -2.031E-13 .            .            .            *            .
  1.492E-01 -2.038E-13 .            .            .            *            .
  1.494E-01 -2.044E-13 .            .            .            *            .
  1.496E-01 -2.050E-13 .            .            .            *            .
  1.498E-01 -2.057E-13 .            .            .            *            .
  1.500E-01 -2.063E-13 .            .            .            *            .
  1.502E-01 -2.070E-13 .            .            .            *            .
  1.504E-01 -2.076E-13 .            .            .            *            .
  1.506E-01 -2.083E-13 .            .            .            *            .
  1.508E-01 -2.089E-13 .            .            .            *            .
  1.510E-01 -2.096E-13 .            .            .            *            .
  1.512E-01 -2.103E-13 .            .            .            *            .
  1.514E-01 -2.110E-13 .            .            .            *            .
  1.516E-01 -2.116E-13 .            .            .            *            .
  1.518E-01 -2.123E-13 .            .            .            *            .
  1.520E-01 -2.130E-13 .            .            .            *            .
  1.522E-01 -2.137E-13 .            .            .            *            .
  1.524E-01 -2.144E-13 .            .            .            *            .
  1.526E-01 -2.151E-13 .            .            .            *            .
  1.528E-01 -2.158E-13 .            .            .            *            .
  1.530E-01 -2.165E-13 .            .            .            *            .
  1.532E-01 -2.172E-13 .            .            .            *            .
  1.534E-01 -2.179E-13 .            .            .            *            .
  1.536E-01 -2.186E-13 .            .            .            *            .
  1.538E-01 -2.193E-13 .            .            .            *            .
  1.540E-01 -2.201E-13 .            .            .            *            .
  1.542E-01 -2.208E-13 .            .            .            *            .
  1.544E-01 -2.215E-13 .            .            .            *            .
  1.546E-01 -2.223E-13 .            .            .            *            .
  1.548E-01 -2.230E-13 .            .            .            *            .
  1.550E-01 -2.238E-13 .            .            .            *            .
  1.552E-01 -2.245E-13 .            .            .            *            .
  1.554E-01 -2.253E-13 .            .            .            *            .
  1.556E-01 -2.260E-13 .            .            .            *            .
  1.558E-01 -2.268E-13 .            .            .            *            .
  1.560E-01 -2.275E-13 .            .            .            *            .
  1.562E-01 -2.283E-13 .            .            .            *            .
  1.564E-01 -2.291E-13 .            .            .            *            .
  1.566E-01 -2.299E-13 .            .            .            *            .
  1.568E-01 -2.307E-13 .            .            .            *            .
  1.570E-01 -2.315E-13 .            .            .            *            .
  1.572E-01 -2.323E-13 .            .            .            *            .
  1.574E-01 -2.331E-13 .            .            .            *            .
  1.576E-01 -2.339E-13 .            .            .            *            .
  1.578E-01 -2.347E-13 .            .            .            *            .
  1.580E-01 -2.355E-13 .            .            .            *            .
  1.582E-01 -2.363E-13 .            .            .            *            .
  1.584E-01 -2.371E-13 .            .            .            *            .
  1.586E-01 -2.380E-13 .            .            .            *            .
  1.588E-01 -2.388E-13 .            .            .            *            .
  1.590E-01 -2.396E-13 .            .            .            *            .
  1.592E-01 -2.405E-13 .            .            .            *            .
  1.594E-01 -2.413E-13 .            .            .            *            .
  1.596E-01 -2.422E-13 .            .            .            *            .
  1.598E-01 -2.431E-13 .            .            .            *            .
  1.600E-01 -2.439E-13 .            .            .            *            .
  1.602E-01 -2.448E-13 .            .            .            *            .
  1.604E-01 -2.457E-13 .            .            .            *            .
  1.606E-01 -2.466E-13 .            .            .            *            .
  1.608E-01 -2.474E-13 .            .            .            *            .
  1.610E-01 -2.483E-13 .            .            .            *            .
  1.612E-01 -2.492E-13 .            .            .            *            .
  1.614E-01 -2.501E-13 .            .            .            *            .
  1.616E-01 -2.510E-13 .            .            .            *            .
  1.618E-01 -2.520E-13 .            .            .            *            .
  1.620E-01 -2.529E-13 .            .            .            *            .
  1.622E-01 -2.538E-13 .            .            .            *            .
  1.624E-01 -2.547E-13 .            .            .            *            .
  1.626E-01 -2.557E-13 .            .            .            *            .
  1.628E-01 -2.566E-13 .            .            .            *            .
  1.630E-01 -2.576E-13 .            .            .            *            .
  1.632E-01 -2.585E-13 .            .            .            *            .
  1.634E-01 -2.595E-13 .            .            .            *            .
  1.636E-01 -2.605E-13 .            .            .            *            .
  1.638E-01 -2.614E-13 .            .            .            *            .
  1.640E-01 -2.624E-13 .            .            .            *            .
  1.642E-01 -2.634E-13 .            .            .            *            .
  1.644E-01 -2.644E-13 .            .            .            *            .
  1.646E-01 -2.654E-13 .            .            .            *            .
  1.648E-01 -2.664E-13 .            .            .            *            .
  1.650E-01 -2.674E-13 .            .            .            *            .
  1.652E-01 -2.684E-13 .            .            .            *            .
  1.654E-01 -2.695E-13 .            .            .            *            .
  1.656E-01 -2.705E-13 .            .            .            *            .
  1.658E-01 -2.715E-13 .            .            .            *            .
  1.660E-01 -2.726E-13 .            .            .            *            .
  1.662E-01 -2.736E-13 .            .            .            *            .
  1.664E-01 -2.747E-13 .            .            .            *            .
  1.666E-01 -2.758E-13 .            .            .            *            .
  1.668E-01 -2.768E-13 .            .            .            *            .
  1.670E-01 -2.779E-13 .            .            .            *            .
  1.672E-01 -2.790E-13 .            .            .            *            .
  1.674E-01 -2.801E-13 .            .            .            *            .
  1.676E-01 -2.812E-13 .            .            .            *            .
  1.678E-01 -2.823E-13 .            .            .            *            .
  1.680E-01 -2.834E-13 .            .            .            *            .
  1.682E-01 -2.846E-13 .            .            .            *            .
  1.684E-01 -2.857E-13 .            .            .            *            .
  1.686E-01 -2.868E-13 .            .            .            *            .
  1.688E-01 -2.880E-13 .            .            .            *            .
  1.690E-01 -2.891E-13 .            .            .            *            .
  1.692E-01 -2.903E-13 .            .            .            *            .
  1.694E-01 -2.915E-13 .            .            .            *            .
  1.696E-01 -2.926E-13 .            .            .            *            .
  1.698E-01 -2.938E-13 .            .            .            *            .
  1.700E-01 -2.950E-13 .            .            .            *            .
  1.702E-01 -2.962E-13 .            .            .            *            .
  1.704E-01 -2.974E-13 .            .            .            *            .
  1.706E-01 -2.986E-13 .            .            .            *            .
  1.708E-01 -2.999E-13 .            .            .            *            .
  1.710E-01 -3.011E-13 .            .            .            *            .
  1.712E-01 -3.023E-13 .            .            .            *            .
  1.714E-01 -3.036E-13 .            .            .            *            .
  1.716E-01 -3.048E-13 .            .            .            *            .
  1.718E-01 -3.061E-13 .            .            .            *            .
  1.720E-01 -3.074E-13 .            .            .            *            .
  1.722E-01 -3.087E-13 .            .            .            *            .
  1.724E-01 -3.100E-13 .            .            .            *            .
  1.726E-01 -3.113E-13 .            .            .            *            .
  1.728E-01 -3.126E-13 .            .            .            *            .
  1.730E-01 -3.139E-13 .            .            .            *            .
  1.732E-01 -3.152E-13 .            .            .            *            .
  1.734E-01 -3.165E-13 .            .            .            *            .
  1.736E-01 -3.179E-13 .            .            .            *            .
  1.738E-01 -3.192E-13 .            .            .            *            .
  1.740E-01 -3.206E-13 .            .            .            *            .
  1.742E-01 -3.220E-13 .            .            .            *            .
  1.744E-01 -3.234E-13 .            .            .            *            .
  1.746E-01 -3.248E-13 .            .            .            *            .
  1.748E-01 -3.262E-13 .            .            .            *            .
  1.750E-01 -3.276E-13 .            .            .            *            .
  1.752E-01 -3.290E-13 .            .            .            *            .
  1.754E-01 -3.304E-13 .            .            .            *            .
  1.756E-01 -3.319E-13 .            .            .            *            .
  1.758E-01 -3.333E-13 .            .            .            *            .
  1.760E-01 -3.348E-13 .            .            .            *            .
  1.762E-01 -3.362E-13 .            .            .            *            .
  1.764E-01 -3.377E-13 .            .            .            *            .
  1.766E-01 -3.392E-13 .            .            .            *            .
  1.768E-01 -3.407E-13 .            .            .            *            .
  1.770E-01 -3.422E-13 .            .            .            *            .
  1.772E-01 -3.437E-13 .            .            .            *            .
  1.774E-01 -3.453E-13 .            .            .            *            .
  1.776E-01 -3.468E-13 .            .            .            *            .
  1.778E-01 -3.484E-13 .            .            .            *            .
  1.780E-01 -3.499E-13 .            .            .            *            .
  1.782E-01 -3.515E-13 .            .            .            *            .
  1.784E-01 -3.531E-13 .            .            .            *            .
  1.786E-01 -3.547E-13 .            .            .            *            .
  1.788E-01 -3.563E-13 .            .            .            *            .
  1.790E-01 -3.579E-13 .            .            .            *            .
  1.792E-01 -3.596E-13 .            .            .            *            .
  1.794E-01 -3.612E-13 .            .            .            *            .
  1.796E-01 -3.629E-13 .            .            .            *            .
  1.798E-01 -3.645E-13 .            .            .            *            .
  1.800E-01 -3.662E-13 .            .            .            *            .
  1.802E-01 -3.679E-13 .            .            .            *            .
  1.804E-01 -3.696E-13 .            .            .            *            .
  1.806E-01 -3.713E-13 .            .            .            *            .
  1.808E-01 -3.730E-13 .            .            .            *            .
  1.810E-01 -3.748E-13 .            .            .            *            .
  1.812E-01 -3.765E-13 .            .            .            *            .
  1.814E-01 -3.783E-13 .            .            .            *            .
  1.816E-01 -3.800E-13 .            .            .            *            .
  1.818E-01 -3.818E-13 .            .            .            *            .
  1.820E-01 -3.836E-13 .            .            .            *            .
  1.822E-01 -3.854E-13 .            .            .            *            .
  1.824E-01 -3.873E-13 .            .            .            *            .
  1.826E-01 -3.891E-13 .            .            .            *            .
  1.828E-01 -3.910E-13 .            .            .            *            .
  1.830E-01 -3.928E-13 .            .            .            *            .
  1.832E-01 -3.947E-13 .            .            .            *            .
  1.834E-01 -3.966E-13 .            .            .            *            .
  1.836E-01 -3.985E-13 .            .            .            *            .
  1.838E-01 -4.004E-13 .            .            .            *            .
  1.840E-01 -4.023E-13 .            .            .            *            .
  1.842E-01 -4.043E-13 .            .            .            *            .
  1.844E-01 -4.063E-13 .            .            .            *            .
  1.846E-01 -4.082E-13 .            .            .            *            .
  1.848E-01 -4.102E-13 .            .            .            *            .
  1.850E-01 -4.122E-13 .            .            .            *            .
  1.852E-01 -4.142E-13 .            .            .            *            .
  1.854E-01 -4.163E-13 .            .            .            *            .
  1.856E-01 -4.183E-13 .            .            .            *            .
  1.858E-01 -4.204E-13 .            .            .            *            .
  1.860E-01 -4.225E-13 .            .            .            *            .
  1.862E-01 -4.245E-13 .            .            .            *            .
  1.864E-01 -4.266E-13 .            .            .            *            .
  1.866E-01 -4.288E-13 .            .            .            *            .
  1.868E-01 -4.309E-13 .            .            .            *            .
  1.870E-01 -4.331E-13 .            .            .            *            .
  1.872E-01 -4.352E-13 .            .            .            *            .
  1.874E-01 -4.374E-13 .            .            .            *            .
  1.876E-01 -4.396E-13 .            .            .            *            .
  1.878E-01 -4.418E-13 .            .            .            *            .
  1.880E-01 -4.441E-13 .            .            .            *            .
  1.882E-01 -4.463E-13 .            .            .            *            .
  1.884E-01 -4.486E-13 .            .            .            *            .
  1.886E-01 -4.508E-13 .            .            .            *            .
  1.888E-01 -4.531E-13 .            .            .            *            .
  1.890E-01 -4.555E-13 .            .            .            *            .
  1.892E-01 -4.578E-13 .            .            .            *            .
  1.894E-01 -4.601E-13 .            .            .            *            .
  1.896E-01 -4.625E-13 .            .            .            *            .
  1.898E-01 -4.649E-13 .            .            .            *            .
  1.900E-01 -4.673E-13 .            .            .            *            .
  1.902E-01 -4.697E-13 .            .            .            *            .
  1.904E-01 -4.721E-13 .            .            .            *            .
  1.906E-01 -4.746E-13 .            .            .            *            .
  1.908E-01 -4.771E-13 .            .            .            *            .
  1.910E-01 -4.795E-13 .            .            .            *            .
  1.912E-01 -4.821E-13 .            .            .            *            .
  1.914E-01 -4.846E-13 .            .            .            *            .
  1.916E-01 -4.871E-13 .            .            .            *            .
  1.918E-01 -4.897E-13 .            .            .            *            .
  1.920E-01 -4.923E-13 .            .            .            *            .
  1.922E-01 -4.949E-13 .            .            .            *            .
  1.924E-01 -4.975E-13 .            .            .            *            .
  1.926E-01 -5.001E-13 .            .            .            *            .
  1.928E-01 -5.028E-13 .            .            .            *            .
  1.930E-01 -5.055E-13 .            .            .            *            .
  1.932E-01 -5.082E-13 .            .            .            *            .
  1.934E-01 -5.109E-13 .            .            .            *            .
  1.936E-01 -5.136E-13 .            .            .            *            .
  1.938E-01 -5.164E-13 .            .            .            *            .
  1.940E-01 -5.192E-13 .            .            .            *            .
  1.942E-01 -5.220E-13 .            .            .            *            .
  1.944E-01 -5.248E-13 .            .            .            *            .
  1.946E-01 -5.276E-13 .            .            .            *            .
  1.948E-01 -5.305E-13 .            .            .            *            .
  1.950E-01 -5.334E-13 .            .            .            *            .
  1.952E-01 -5.363E-13 .            .            .            *            .
  1.954E-01 -5.392E-13 .            .            .            *            .
  1.956E-01 -5.421E-13 .            .            .            *            .
  1.958E-01 -5.451E-13 .            .            .            *            .
  1.960E-01 -5.481E-13 .            .            .            *            .
  1.962E-01 -5.511E-13 .            .            .            *            .
  1.964E-01 -5.542E-13 .            .            .            *            .
  1.966E-01 -5.572E-13 .            .            .            *            .
  1.968E-01 -5.603E-13 .            .            .            *            .
  1.970E-01 -5.634E-13 .            .            .            *            .
  1.972E-01 -5.665E-13 .            .            .            *            .
  1.974E-01 -5.697E-13 .            .            .            *            .
  1.976E-01 -5.729E-13 .            .            .            *            .
  1.978E-01 -5.761E-13 .            .            .            *            .
  1.980E-01 -5.793E-13 .            .            .            *            .
  1.982E-01 -5.825E-13 .            .            .            *            .
  1.984E-01 -5.858E-13 .            .            .            *            .
  1.986E-01 -5.891E-13 .            .            .            *            .
  1.988E-01 -5.924E-13 .            .            .            *            .
  1.990E-01 -5.958E-13 .            .            .            *            .
  1.992E-01 -5.991E-13 .            .            .            *            .
  1.994E-01 -6.025E-13 .            .            .            *            .
  1.996E-01 -6.060E-13 .            .            .            *            .
  1.998E-01 -6.094E-13 .            .            .            *            .
  2.000E-01 -6.129E-13 .            .            .            *            .
  2.002E-01 -6.164E-13 .            .            .            *            .
  2.004E-01 -6.199E-13 .            .            .            *            .
  2.006E-01 -6.235E-13 .            .            .            *            .
  2.008E-01 -6.270E-13 .            .            .            *            .
  2.010E-01 -6.307E-13 .            .            .            *            .
  2.012E-01 -6.343E-13 .            .            .            *            .
  2.014E-01 -6.380E-13 .            .            .            *            .
  2.016E-01 -6.416E-13 .            .            .            *            .
  2.018E-01 -6.454E-13 .            .            .            *            .
  2.020E-01 -6.491E-13 .            .            .            *            .
  2.022E-01 -6.529E-13 .            .            .            *            .
  2.024E-01 -6.567E-13 .            .            .            *            .
  2.026E-01 -6.605E-13 .            .            .            *            .
  2.028E-01 -6.644E-13 .            .            .            *            .
[...]
  7.494E-01 -1.456E-01 .            .            .            .   *        .
  7.496E-01 -1.464E-01 .            .            .            .  *         .
  7.498E-01 -1.473E-01 .            .            .            .  *         .
  7.500E-01 -1.481E-01 .            .            .            .  *         .
  7.502E-01 -1.490E-01 .            .            .            .  *         .
  7.504E-01 -1.499E-01 .            .            .            .  *         .
  7.506E-01 -1.508E-01 .            .            .            .  *         .
  7.508E-01 -1.516E-01 .            .            .            .  *         .
  7.510E-01 -1.525E-01 .            .            .            .  *         .
  7.512E-01 -1.534E-01 .            .            .            .  *         .
  7.514E-01 -1.543E-01 .            .            .            .  *         .
  7.516E-01 -1.552E-01 .            .            .            .  *         .
  7.518E-01 -1.561E-01 .            .            .            .  *         .
  7.520E-01 -1.570E-01 .            .            .            .  *         .
  7.522E-01 -1.580E-01 .            .            .            .  *         .
  7.524E-01 -1.589E-01 .            .            .            .  *         .
  7.526E-01 -1.598E-01 .            .            .            .  *         .
  7.528E-01 -1.607E-01 .            .            .            .  *         .
  7.530E-01 -1.617E-01 .            .            .            . *          .
  7.532E-01 -1.626E-01 .            .            .            . *          .
  7.534E-01 -1.636E-01 .            .            .            . *          .
  7.536E-01 -1.645E-01 .            .            .            . *          .
  7.538E-01 -1.655E-01 .            .            .            . *          .
  7.540E-01 -1.665E-01 .            .            .            . *          .
  7.542E-01 -1.674E-01 .            .            .            . *          .
  7.544E-01 -1.684E-01 .            .            .            . *          .
  7.546E-01 -1.694E-01 .            .            .            . *          .
  7.548E-01 -1.704E-01 .            .            .            . *          .
  7.550E-01 -1.714E-01 .            .            .            . *          .
  7.552E-01 -1.724E-01 .            .            .            . *          .
  7.554E-01 -1.734E-01 .            .            .            . *          .
  7.556E-01 -1.744E-01 .            .            .            . *          .
  7.558E-01 -1.754E-01 .            .            .            . *          .
  7.560E-01 -1.764E-01 .            .            .            . *          .
  7.562E-01 -1.775E-01 .            .            .            .*           .
  7.564E-01 -1.785E-01 .            .            .            .*           .
  7.566E-01 -1.796E-01 .            .            .            .*           .
  7.568E-01 -1.806E-01 .            .            .            .*           .
  7.570E-01 -1.817E-01 .            .            .            .*           .
  7.572E-01 -1.827E-01 .            .            .            .*           .
  7.574E-01 -1.838E-01 .            .            .            .*           .
  7.576E-01 -1.849E-01 .            .            .            .*           .
  7.578E-01 -1.859E-01 .            .            .            .*           .
  7.580E-01 -1.870E-01 .            .            .            .*           .
  7.582E-01 -1.881E-01 .            .            .            .*           .
  7.584E-01 -1.892E-01 .            .            .            .*           .
  7.586E-01 -1.903E-01 .            .            .            .*           .
  7.588E-01 -1.914E-01 .            .            .            .*           .
  7.590E-01 -1.926E-01 .            .            .            *            .
  7.592E-01 -1.937E-01 .            .            .            *            .
  7.594E-01 -1.948E-01 .            .            .            *            .
  7.596E-01 -1.960E-01 .            .            .            *            .
  7.598E-01 -1.971E-01 .            .            .            *            .
  7.600E-01 -1.983E-01 .            .            .            *            .
  7.602E-01 -1.994E-01 .            .            .            *            .
  7.604E-01 -2.006E-01 .            .            .            *            .
  7.606E-01 -2.017E-01 .            .            .            *            .
  7.608E-01 -2.029E-01 .            .            .            *            .
  7.610E-01 -2.041E-01 .            .            .            *            .
  7.612E-01 -2.053E-01 .            .            .            *            .
  7.614E-01 -2.065E-01 .            .            .            *            .
  7.616E-01 -2.077E-01 .            .            .           *.            .
  7.618E-01 -2.089E-01 .            .            .           *.            .
  7.620E-01 -2.101E-01 .            .            .           *.            .
  7.622E-01 -2.114E-01 .            .            .           *.            .
  7.624E-01 -2.126E-01 .            .            .           *.            .
  7.626E-01 -2.139E-01 .            .            .           *.            .
  7.628E-01 -2.151E-01 .            .            .           *.            .
  7.630E-01 -2.164E-01 .            .            .           *.            .
  7.632E-01 -2.176E-01 .            .            .           *.            .
  7.634E-01 -2.189E-01 .            .            .           *.            .
  7.636E-01 -2.202E-01 .            .            .           *.            .
  7.638E-01 -2.215E-01 .            .            .           *.            .
  7.640E-01 -2.228E-01 .            .            .           *.            .
  7.642E-01 -2.241E-01 .            .            .          * .            .
  7.644E-01 -2.254E-01 .            .            .          * .            .
  7.646E-01 -2.267E-01 .            .            .          * .            .
  7.648E-01 -2.280E-01 .            .            .          * .            .
  7.650E-01 -2.293E-01 .            .            .          * .            .
  7.652E-01 -2.307E-01 .            .            .          * .            .
  7.654E-01 -2.320E-01 .            .            .          * .            .
  7.656E-01 -2.334E-01 .            .            .          * .            .
  7.658E-01 -2.347E-01 .            .            .          * .            .
  7.660E-01 -2.361E-01 .            .            .          * .            .
  7.662E-01 -2.375E-01 .            .            .          * .            .
  7.664E-01 -2.389E-01 .            .            .         *  .            .
  7.666E-01 -2.403E-01 .            .            .         *  .            .
  7.668E-01 -2.417E-01 .            .            .         *  .            .
  7.670E-01 -2.431E-01 .            .            .         *  .            .
  7.672E-01 -2.445E-01 .            .            .         *  .            .
  7.674E-01 -2.459E-01 .            .            .         *  .            .
  7.676E-01 -2.474E-01 .            .            .         *  .            .
  7.678E-01 -2.488E-01 .            .            .         *  .            .
  7.680E-01 -2.503E-01 .            .            .         *  .            .
  7.682E-01 -2.517E-01 .            .            .         *  .            .
  7.684E-01 -2.532E-01 .            .            .         *  .            .
  7.686E-01 -2.547E-01 .            .            .        *   .            .
  7.688E-01 -2.562E-01 .            .            .        *   .            .
  7.690E-01 -2.577E-01 .            .            .        *   .            .
  7.692E-01 -2.592E-01 .            .            .        *   .            .
  7.694E-01 -2.607E-01 .            .            .        *   .            .
  7.696E-01 -2.622E-01 .            .            .        *   .            .
  7.698E-01 -2.638E-01 .            .            .        *   .            .
  7.700E-01 -2.653E-01 .            .            .        *   .            .
  7.702E-01 -2.669E-01 .            .            .        *   .            .
  7.704E-01 -2.684E-01 .            .            .        *   .            .
  7.706E-01 -2.700E-01 .            .            .       *    .            .
  7.708E-01 -2.716E-01 .            .            .       *    .            .
  7.710E-01 -2.731E-01 .            .            .       *    .            .
  7.712E-01 -2.747E-01 .            .            .       *    .            .
  7.714E-01 -2.763E-01 .            .            .       *    .            .
  7.716E-01 -2.780E-01 .            .            .       *    .            .
  7.718E-01 -2.796E-01 .            .            .       *    .            .
  7.720E-01 -2.812E-01 .            .            .       *    .            .
  7.722E-01 -2.829E-01 .            .            .       *    .            .
  7.724E-01 -2.845E-01 .            .            .       *    .            .
  7.726E-01 -2.862E-01 .            .            .      *     .            .
  7.728E-01 -2.879E-01 .            .            .      *     .            .
  7.730E-01 -2.895E-01 .            .            .      *     .            .
  7.732E-01 -2.912E-01 .            .            .      *     .            .
  7.734E-01 -2.929E-01 .            .            .      *     .            .
  7.736E-01 -2.946E-01 .            .            .      *     .            .
  7.738E-01 -2.964E-01 .            .            .      *     .            .
  7.740E-01 -2.981E-01 .            .            .      *     .            .
  7.742E-01 -2.998E-01 .            .            .      *     .            .
  7.744E-01 -3.016E-01 .            .            .     *      .            .
  7.746E-01 -3.033E-01 .            .            .     *      .            .
  7.748E-01 -3.051E-01 .            .            .     *      .            .
  7.750E-01 -3.069E-01 .            .            .     *      .            .
  7.752E-01 -3.087E-01 .            .            .     *      .            .
  7.754E-01 -3.105E-01 .            .            .     *      .            .
  7.756E-01 -3.123E-01 .            .            .     *      .            .
  7.758E-01 -3.141E-01 .            .            .     *      .            .
  7.760E-01 -3.160E-01 .            .            .    *       .            .
  7.762E-01 -3.178E-01 .            .            .    *       .            .
  7.764E-01 -3.197E-01 .            .            .    *       .            .
  7.766E-01 -3.215E-01 .            .            .    *       .            .
  7.768E-01 -3.234E-01 .            .            .    *       .            .
  7.770E-01 -3.253E-01 .            .            .    *       .            .
  7.772E-01 -3.272E-01 .            .            .    *       .            .
  7.774E-01 -3.291E-01 .            .            .    *       .            .
  7.776E-01 -3.311E-01 .            .            .   *        .            .
  7.778E-01 -3.330E-01 .            .            .   *        .            .
  7.780E-01 -3.349E-01 .            .            .   *        .            .
  7.782E-01 -3.369E-01 .            .            .   *        .            .
  7.784E-01 -3.389E-01 .            .            .   *        .            .
  7.786E-01 -3.408E-01 .            .            .   *        .            .
  7.788E-01 -3.428E-01 .            .            .   *        .            .
  7.790E-01 -3.448E-01 .            .            .   *        .            .
  7.792E-01 -3.469E-01 .            .            .  *         .            .
  7.794E-01 -3.489E-01 .            .            .  *         .            .
  7.796E-01 -3.509E-01 .            .            .  *         .            .
  7.798E-01 -3.530E-01 .            .            .  *         .            .
  7.800E-01 -3.550E-01 .            .            .  *         .            .
  7.802E-01 -3.571E-01 .            .            .  *         .            .
  7.804E-01 -3.592E-01 .            .            .  *         .            .
  7.806E-01 -3.613E-01 .            .            .  *         .            .
  7.808E-01 -3.634E-01 .            .            . *          .            .
  7.810E-01 -3.655E-01 .            .            . *          .            .
  7.812E-01 -3.677E-01 .            .            . *          .            .
  7.814E-01 -3.698E-01 .            .            . *          .            .
  7.816E-01 -3.720E-01 .            .            . *          .            .
  7.818E-01 -3.741E-01 .            .            . *          .            .
  7.820E-01 -3.763E-01 .            .            . *          .            .
  7.822E-01 -3.785E-01 .            .            .*           .            .
  7.824E-01 -3.807E-01 .            .            .*           .            .
  7.826E-01 -3.830E-01 .            .            .*           .            .
  7.828E-01 -3.852E-01 .            .            .*           .            .
  7.830E-01 -3.875E-01 .            .            .*           .            .
  7.832E-01 -3.897E-01 .            .            .*           .            .
  7.834E-01 -3.920E-01 .            .            .*           .            .
  7.836E-01 -3.943E-01 .            .            *            .            .
  7.838E-01 -3.966E-01 .            .            *            .            .
  7.840E-01 -3.989E-01 .            .            *            .            .
  7.842E-01 -4.012E-01 .            .            *            .            .
  7.844E-01 -4.036E-01 .            .            *            .            .
  7.846E-01 -4.059E-01 .            .            *            .            .
  7.848E-01 -4.083E-01 .            .           *.            .            .
  7.850E-01 -4.107E-01 .            .           *.            .            .
  7.852E-01 -4.131E-01 .            .           *.            .            .
  7.854E-01 -4.155E-01 .            .           *.            .            .
  7.856E-01 -4.179E-01 .            .           *.            .            .
  7.858E-01 -4.204E-01 .            .           *.            .            .
  7.860E-01 -4.228E-01 .            .           *.            .            .
  7.862E-01 -4.253E-01 .            .          * .            .            .
  7.864E-01 -4.278E-01 .            .          * .            .            .
  7.866E-01 -4.303E-01 .            .          * .            .            .
  7.868E-01 -4.328E-01 .            .          * .            .            .
  7.870E-01 -4.353E-01 .            .          * .            .            .
  7.872E-01 -4.379E-01 .            .          * .            .            .
  7.874E-01 -4.404E-01 .            .         *  .            .            .
  7.876E-01 -4.430E-01 .            .         *  .            .            .
  7.878E-01 -4.456E-01 .            .         *  .            .            .
  7.880E-01 -4.482E-01 .            .         *  .            .            .
  7.882E-01 -4.508E-01 .            .         *  .            .            .
  7.884E-01 -4.535E-01 .            .         *  .            .            .
  7.886E-01 -4.561E-01 .            .        *   .            .            .
  7.888E-01 -4.588E-01 .            .        *   .            .            .
  7.890E-01 -4.615E-01 .            .        *   .            .            .
  7.892E-01 -4.642E-01 .            .        *   .            .            .
  7.894E-01 -4.669E-01 .            .        *   .            .            .
  7.896E-01 -4.696E-01 .            .       *    .            .            .
  7.898E-01 -4.723E-01 .            .       *    .            .            .
  7.900E-01 -4.751E-01 .            .       *    .            .            .
  7.902E-01 -4.779E-01 .            .       *    .            .            .
  7.904E-01 -4.807E-01 .            .       *    .            .            .
  7.906E-01 -4.835E-01 .            .       *    .            .            .
  7.908E-01 -4.863E-01 .            .      *     .            .            .
  7.910E-01 -4.892E-01 .            .      *     .            .            .
  7.912E-01 -4.920E-01 .            .      *     .            .            .
  7.914E-01 -4.949E-01 .            .      *     .            .            .
  7.916E-01 -4.978E-01 .            .      *     .            .            .
  7.918E-01 -5.007E-01 .            .     *      .            .            .
  7.920E-01 -5.036E-01 .            .     *      .            .            .
  7.922E-01 -5.066E-01 .            .     *      .            .            .
  7.924E-01 -5.095E-01 .            .     *      .            .            .
  7.926E-01 -5.125E-01 .            .     *      .            .            .
  7.928E-01 -5.155E-01 .            .    *       .            .            .
  7.930E-01 -5.185E-01 .            .    *       .            .            .
  7.932E-01 -5.215E-01 .            .    *       .            .            .
  7.934E-01 -5.246E-01 .            .    *       .            .            .
  7.936E-01 -5.276E-01 .            .    *       .            .            .
  7.938E-01 -5.307E-01 .            .    *       .            .            .
  7.940E-01 -5.338E-01 .            .   *        .            .            .
  7.942E-01 -5.369E-01 .            .   *        .            .            .
  7.944E-01 -5.401E-01 .            .   *        .            .            .
  7.946E-01 -5.432E-01 .            .   *        .            .            .
  7.948E-01 -5.464E-01 .            .  *         .            .            .
  7.950E-01 -5.496E-01 .            .  *         .            .            .
  7.952E-01 -5.528E-01 .            .  *         .            .            .
  7.954E-01 -5.560E-01 .            .  *         .            .            .
  7.956E-01 -5.593E-01 .            .  *         .            .            .
  7.958E-01 -5.626E-01 .            . *          .            .            .
  7.960E-01 -5.659E-01 .            . *          .            .            .
  7.962E-01 -5.692E-01 .            . *          .            .            .
  7.964E-01 -5.725E-01 .            . *          .            .            .
  7.966E-01 -5.758E-01 .            . *          .            .            .
  7.968E-01 -5.792E-01 .            .*           .            .            .
  7.970E-01 -5.826E-01 .            .*           .            .            .
  7.972E-01 -5.860E-01 .            .*           .            .            .
  7.974E-01 -5.894E-01 .            .*           .            .            .
  7.976E-01 -5.929E-01 .            *            .            .            .
  7.978E-01 -5.963E-01 .            *            .            .            .
  7.980E-01 -5.998E-01 .            *            .            .            .
  7.982E-01 -6.033E-01 .            *            .            .            .
  7.984E-01 -6.068E-01 .            *            .            .            .
  7.986E-01 -6.104E-01 .           *.            .            .            .
  7.988E-01 -6.139E-01 .           *.            .            .            .
  7.990E-01 -6.175E-01 .           *.            .            .            .
  7.992E-01 -6.211E-01 .           *.            .            .            .
  7.994E-01 -6.248E-01 .          * .            .            .            .
  7.996E-01 -6.284E-01 .          * .            .            .            .
  7.998E-01 -6.321E-01 .          * .            .            .            .
  8.000E-01 -6.358E-01 .          * .            .            .            .
                       - - - - - - - - - - - - - - - - - - - - - - - - - - - 




          JOB CONCLUDED

**** 04/26/22 19:55:31 ******* PSpice Lite (March 2016) ******* ID# 10813 ****

 Temperature Effect of I-V characteristics


 ****     JOB STATISTICS SUMMARY


******************************************************************************



  Total job time (using Solver 1)   =         .34
