
**** 03/29/22 14:46:33 ******* PSpice Lite (March 2016) ******* ID# 10813 ****

  


 ****     CIRCUIT DESCRIPTION


******************************************************************************



vdd 1 0 dc 15v
iref 1 2 dc 1m
m1 2 2 0 0 aaa l=10u w=100u 
.model aaa nmos(kp=20u vto=1 lambda=0.02)
vo 3 0 dc 8v
m2 3 2 0 0 bbb l=10u w=100u 
.model bbb nmos(kp=20u vto=1 lambda=0.02)
.op
.dc vo 0 15 0.01
.plot dc i(vo)
.probe
.end

**** 03/29/22 14:46:33 ******* PSpice Lite (March 2016) ******* ID# 10813 ****

  


 ****     MOSFET MODEL PARAMETERS


******************************************************************************




               aaa             bbb             
               NMOS            NMOS            
       LEVEL    1               1            
           L  100.000000E-06  100.000000E-06 
           W  100.000000E-06  100.000000E-06 
         VTO    1               1            
          KP   20.000000E-06   20.000000E-06 
       GAMMA    0               0            
         PHI     .6              .6          
      LAMBDA     .02             .02         
          IS   10.000000E-15   10.000000E-15 
          JS    0               0            
          PB     .8              .8          
        PBSW     .8              .8          
          CJ    0               0            
        CJSW    0               0            
        CGSO    0               0            
        CGDO    0               0            
        CGBO    0               0            
         TOX    0               0            
          XJ    0               0            
       UCRIT   10.000000E+03   10.000000E+03 
      DIOMOD    1               1            
         VFB    0               0            
        LETA    0               0            
        WETA    0               0            
          U0    0               0            
        TEMP    0               0            
         VDD    5               5            
       XPART    0               0            


**** 03/29/22 14:46:33 ******* PSpice Lite (March 2016) ******* ID# 10813 ****

  


 ****     DC TRANSFER CURVES               TEMPERATURE =   27.000 DEG C


******************************************************************************



  vo          I(vo)       
(*)----------   -1.5000E-03  -1.0000E-03  -5.0000E-04   0.0000E+00   5.0000E-04
                       _ _ _ _ _ _ _ _ _ _ _ _ _ _ _ _ _ _ _ _ _ _ _ _ _ _ _
  0.000E+00  0.000E+00 .            .            .            *            .
  1.000E-02 -6.075E-06 .            .            .            *            .
  2.000E-02 -1.213E-05 .            .            .            *            .
  3.000E-02 -1.817E-05 .            .            .            *            .
  4.000E-02 -2.419E-05 .            .            .           *.            .
  5.000E-02 -3.020E-05 .            .            .           *.            .
  6.000E-02 -3.618E-05 .            .            .           *.            .
  7.000E-02 -4.215E-05 .            .            .           *.            .
  8.000E-02 -4.810E-05 .            .            .           *.            .
  9.000E-02 -5.404E-05 .            .            .           *.            .
  1.000E-01 -5.995E-05 .            .            .          * .            .
  1.100E-01 -6.585E-05 .            .            .          * .            .
  1.200E-01 -7.173E-05 .            .            .          * .            .
  1.300E-01 -7.760E-05 .            .            .          * .            .
  1.400E-01 -8.344E-05 .            .            .          * .            .
  1.500E-01 -8.927E-05 .            .            .          * .            .
  1.600E-01 -9.508E-05 .            .            .          * .            .
  1.700E-01 -1.009E-04 .            .            .         *  .            .
  1.800E-01 -1.066E-04 .            .            .         *  .            .
  1.900E-01 -1.124E-04 .            .            .         *  .            .
  2.000E-01 -1.181E-04 .            .            .         *  .            .
  2.100E-01 -1.239E-04 .            .            .         *  .            .
  2.200E-01 -1.296E-04 .            .            .         *  .            .
  2.300E-01 -1.352E-04 .            .            .        *   .            .
  2.400E-01 -1.409E-04 .            .            .        *   .            .
  2.500E-01 -1.466E-04 .            .            .        *   .            .
  2.600E-01 -1.522E-04 .            .            .        *   .            .
  2.700E-01 -1.578E-04 .            .            .        *   .            .
  2.800E-01 -1.634E-04 .            .            .        *   .            .
  2.900E-01 -1.690E-04 .            .            .        *   .            .
  3.000E-01 -1.745E-04 .            .            .       *    .            .
  3.100E-01 -1.801E-04 .            .            .       *    .            .
  3.200E-01 -1.856E-04 .            .            .       *    .            .
  3.300E-01 -1.911E-04 .            .            .       *    .            .
  3.400E-01 -1.966E-04 .            .            .       *    .            .
  3.500E-01 -2.021E-04 .            .            .       *    .            .
  3.600E-01 -2.075E-04 .            .            .       *    .            .
  3.700E-01 -2.130E-04 .            .            .      *     .            .
  3.800E-01 -2.184E-04 .            .            .      *     .            .
  3.900E-01 -2.238E-04 .            .            .      *     .            .
  4.000E-01 -2.292E-04 .            .            .      *     .            .
  4.100E-01 -2.345E-04 .            .            .      *     .            .
  4.200E-01 -2.399E-04 .            .            .      *     .            .
  4.300E-01 -2.452E-04 .            .            .      *     .            .
  4.400E-01 -2.505E-04 .            .            .     *      .            .
  4.500E-01 -2.558E-04 .            .            .     *      .            .
  4.600E-01 -2.611E-04 .            .            .     *      .            .
  4.700E-01 -2.663E-04 .            .            .     *      .            .
  4.800E-01 -2.715E-04 .            .            .     *      .            .
  4.900E-01 -2.768E-04 .            .            .     *      .            .
  5.000E-01 -2.820E-04 .            .            .     *      .            .
  5.100E-01 -2.871E-04 .            .            .     *      .            .
  5.200E-01 -2.923E-04 .            .            .    *       .            .
  5.300E-01 -2.975E-04 .            .            .    *       .            .
  5.400E-01 -3.026E-04 .            .            .    *       .            .
  5.500E-01 -3.077E-04 .            .            .    *       .            .
  5.600E-01 -3.128E-04 .            .            .    *       .            .
  5.700E-01 -3.179E-04 .            .            .    *       .            .
  5.800E-01 -3.229E-04 .            .            .    *       .            .
  5.900E-01 -3.279E-04 .            .            .   *        .            .
  6.000E-01 -3.330E-04 .            .            .   *        .            .
  6.100E-01 -3.380E-04 .            .            .   *        .            .
  6.200E-01 -3.429E-04 .            .            .   *        .            .
  6.300E-01 -3.479E-04 .            .            .   *        .            .
  6.400E-01 -3.528E-04 .            .            .   *        .            .
  6.500E-01 -3.578E-04 .            .            .   *        .            .
  6.600E-01 -3.627E-04 .            .            .   *        .            .
  6.700E-01 -3.676E-04 .            .            .  *         .            .
  6.800E-01 -3.724E-04 .            .            .  *         .            .
  6.900E-01 -3.773E-04 .            .            .  *         .            .
  7.000E-01 -3.821E-04 .            .            .  *         .            .
  7.100E-01 -3.869E-04 .            .            .  *         .            .
  7.200E-01 -3.917E-04 .            .            .  *         .            .
  7.300E-01 -3.965E-04 .            .            .  *         .            .
  7.400E-01 -4.013E-04 .            .            .  *         .            .
  7.500E-01 -4.060E-04 .            .            . *          .            .
  7.600E-01 -4.107E-04 .            .            . *          .            .
  7.700E-01 -4.154E-04 .            .            . *          .            .
  7.800E-01 -4.201E-04 .            .            . *          .            .
  7.900E-01 -4.248E-04 .            .            . *          .            .
  8.000E-01 -4.294E-04 .            .            . *          .            .
  8.100E-01 -4.341E-04 .            .            . *          .            .
  8.200E-01 -4.387E-04 .            .            . *          .            .
  8.300E-01 -4.433E-04 .            .            .*           .            .
  8.400E-01 -4.479E-04 .            .            .*           .            .
  8.500E-01 -4.524E-04 .            .            .*           .            .
  8.600E-01 -4.569E-04 .            .            .*           .            .
  8.700E-01 -4.615E-04 .            .            .*           .            .
  8.800E-01 -4.660E-04 .            .            .*           .            .
  8.900E-01 -4.704E-04 .            .            .*           .            .
  9.000E-01 -4.749E-04 .            .            .*           .            .
  9.100E-01 -4.794E-04 .            .            .*           .            .
  9.200E-01 -4.838E-04 .            .            *            .            .
  9.300E-01 -4.882E-04 .            .            *            .            .
  9.400E-01 -4.926E-04 .            .            *            .            .
  9.500E-01 -4.969E-04 .            .            *            .            .
  9.600E-01 -5.013E-04 .            .            *            .            .
  9.700E-01 -5.056E-04 .            .            *            .            .
  9.800E-01 -5.099E-04 .            .            *            .            .
  9.900E-01 -5.142E-04 .            .            *            .            .
  1.000E+00 -5.185E-04 .            .            *            .            .
  1.010E+00 -5.228E-04 .            .           *.            .            .
  1.020E+00 -5.270E-04 .            .           *.            .            .
  1.030E+00 -5.312E-04 .            .           *.            .            .
  1.040E+00 -5.354E-04 .            .           *.            .            .
  1.050E+00 -5.396E-04 .            .           *.            .            .
  1.060E+00 -5.438E-04 .            .           *.            .            .
  1.070E+00 -5.479E-04 .            .           *.            .            .
  1.080E+00 -5.520E-04 .            .           *.            .            .
  1.090E+00 -5.562E-04 .            .           *.            .            .
  1.100E+00 -5.602E-04 .            .          * .            .            .
  1.110E+00 -5.643E-04 .            .          * .            .            .
  1.120E+00 -5.684E-04 .            .          * .            .            .
  1.130E+00 -5.724E-04 .            .          * .            .            .
  1.140E+00 -5.764E-04 .            .          * .            .            .
  1.150E+00 -5.804E-04 .            .          * .            .            .
  1.160E+00 -5.844E-04 .            .          * .            .            .
  1.170E+00 -5.883E-04 .            .          * .            .            .
  1.180E+00 -5.923E-04 .            .          * .            .            .
  1.190E+00 -5.962E-04 .            .          * .            .            .
  1.200E+00 -6.001E-04 .            .         *  .            .            .
  1.210E+00 -6.040E-04 .            .         *  .            .            .
  1.220E+00 -6.078E-04 .            .         *  .            .            .
  1.230E+00 -6.117E-04 .            .         *  .            .            .
  1.240E+00 -6.155E-04 .            .         *  .            .            .
  1.250E+00 -6.193E-04 .            .         *  .            .            .
  1.260E+00 -6.231E-04 .            .         *  .            .            .
  1.270E+00 -6.268E-04 .            .         *  .            .            .
  1.280E+00 -6.306E-04 .            .         *  .            .            .
  1.290E+00 -6.343E-04 .            .         *  .            .            .
  1.300E+00 -6.380E-04 .            .        *   .            .            .
  1.310E+00 -6.417E-04 .            .        *   .            .            .
  1.320E+00 -6.454E-04 .            .        *   .            .            .
  1.330E+00 -6.490E-04 .            .        *   .            .            .
  1.340E+00 -6.527E-04 .            .        *   .            .            .
  1.350E+00 -6.563E-04 .            .        *   .            .            .
  1.360E+00 -6.599E-04 .            .        *   .            .            .
  1.370E+00 -6.634E-04 .            .        *   .            .            .
  1.380E+00 -6.670E-04 .            .        *   .            .            .
  1.390E+00 -6.705E-04 .            .        *   .            .            .
  1.400E+00 -6.740E-04 .            .       *    .            .            .
  1.410E+00 -6.775E-04 .            .       *    .            .            .
  1.420E+00 -6.810E-04 .            .       *    .            .            .
  1.430E+00 -6.845E-04 .            .       *    .            .            .
  1.440E+00 -6.879E-04 .            .       *    .            .            .
  1.450E+00 -6.913E-04 .            .       *    .            .            .
  1.460E+00 -6.947E-04 .            .       *    .            .            .
  1.470E+00 -6.981E-04 .            .       *    .            .            .
  1.480E+00 -7.015E-04 .            .       *    .            .            .
  1.490E+00 -7.048E-04 .            .       *    .            .            .
  1.500E+00 -7.081E-04 .            .       *    .            .            .
  1.510E+00 -7.114E-04 .            .       *    .            .            .
  1.520E+00 -7.147E-04 .            .      *     .            .            .
  1.530E+00 -7.180E-04 .            .      *     .            .            .
  1.540E+00 -7.212E-04 .            .      *     .            .            .
  1.550E+00 -7.245E-04 .            .      *     .            .            .
  1.560E+00 -7.277E-04 .            .      *     .            .            .
  1.570E+00 -7.309E-04 .            .      *     .            .            .
  1.580E+00 -7.340E-04 .            .      *     .            .            .
  1.590E+00 -7.372E-04 .            .      *     .            .            .
  1.600E+00 -7.403E-04 .            .      *     .            .            .
  1.610E+00 -7.434E-04 .            .      *     .            .            .
  1.620E+00 -7.465E-04 .            .      *     .            .            .
  1.630E+00 -7.496E-04 .            .      *     .            .            .
  1.640E+00 -7.526E-04 .            .     *      .            .            .
  1.650E+00 -7.557E-04 .            .     *      .            .            .
  1.660E+00 -7.587E-04 .            .     *      .            .            .
  1.670E+00 -7.617E-04 .            .     *      .            .            .
  1.680E+00 -7.646E-04 .            .     *      .            .            .
  1.690E+00 -7.676E-04 .            .     *      .            .            .
  1.700E+00 -7.705E-04 .            .     *      .            .            .
  1.710E+00 -7.734E-04 .            .     *      .            .            .
  1.720E+00 -7.763E-04 .            .     *      .            .            .
  1.730E+00 -7.792E-04 .            .     *      .            .            .
  1.740E+00 -7.821E-04 .            .     *      .            .            .
  1.750E+00 -7.849E-04 .            .     *      .            .            .
  1.760E+00 -7.877E-04 .            .     *      .            .            .
  1.770E+00 -7.905E-04 .            .    *       .            .            .
  1.780E+00 -7.933E-04 .            .    *       .            .            .
  1.790E+00 -7.960E-04 .            .    *       .            .            .
  1.800E+00 -7.988E-04 .            .    *       .            .            .
  1.810E+00 -8.015E-04 .            .    *       .            .            .
  1.820E+00 -8.042E-04 .            .    *       .            .            .
  1.830E+00 -8.069E-04 .            .    *       .            .            .
  1.840E+00 -8.095E-04 .            .    *       .            .            .
  1.850E+00 -8.122E-04 .            .    *       .            .            .
  1.860E+00 -8.148E-04 .            .    *       .            .            .
  1.870E+00 -8.174E-04 .            .    *       .            .            .
  1.880E+00 -8.200E-04 .            .    *       .            .            .
  1.890E+00 -8.225E-04 .            .    *       .            .            .
  1.900E+00 -8.251E-04 .            .    *       .            .            .
  1.910E+00 -8.276E-04 .            .   *        .            .            .
  1.920E+00 -8.301E-04 .            .   *        .            .            .
  1.930E+00 -8.326E-04 .            .   *        .            .            .
  1.940E+00 -8.350E-04 .            .   *        .            .            .
  1.950E+00 -8.375E-04 .            .   *        .            .            .
  1.960E+00 -8.399E-04 .            .   *        .            .            .
  1.970E+00 -8.423E-04 .            .   *        .            .            .
  1.980E+00 -8.447E-04 .            .   *        .            .            .
  1.990E+00 -8.470E-04 .            .   *        .            .            .
  2.000E+00 -8.494E-04 .            .   *        .            .            .
  2.010E+00 -8.517E-04 .            .   *        .            .            .
  2.020E+00 -8.540E-04 .            .   *        .            .            .
  2.030E+00 -8.563E-04 .            .   *        .            .            .
  2.040E+00 -8.585E-04 .            .   *        .            .            .
  2.050E+00 -8.608E-04 .            .   *        .            .            .
  2.060E+00 -8.630E-04 .            .   *        .            .            .
  2.070E+00 -8.652E-04 .            .   *        .            .            .
  2.080E+00 -8.674E-04 .            .  *         .            .            .
  2.090E+00 -8.695E-04 .            .  *         .            .            .
  2.100E+00 -8.717E-04 .            .  *         .            .            .
  2.110E+00 -8.738E-04 .            .  *         .            .            .
  2.120E+00 -8.759E-04 .            .  *         .            .            .
  2.130E+00 -8.780E-04 .            .  *         .            .            .
  2.140E+00 -8.800E-04 .            .  *         .            .            .
  2.150E+00 -8.821E-04 .            .  *         .            .            .
  2.160E+00 -8.841E-04 .            .  *         .            .            .
  2.170E+00 -8.861E-04 .            .  *         .            .            .
  2.180E+00 -8.881E-04 .            .  *         .            .            .
  2.190E+00 -8.900E-04 .            .  *         .            .            .
  2.200E+00 -8.920E-04 .            .  *         .            .            .
  2.210E+00 -8.939E-04 .            .  *         .            .            .
  2.220E+00 -8.958E-04 .            .  *         .            .            .
  2.230E+00 -8.976E-04 .            .  *         .            .            .
  2.240E+00 -8.995E-04 .            .  *         .            .            .
  2.250E+00 -9.013E-04 .            .  *         .            .            .
  2.260E+00 -9.032E-04 .            .  *         .            .            .
  2.270E+00 -9.050E-04 .            . *          .            .            .
  2.280E+00 -9.067E-04 .            . *          .            .            .
  2.290E+00 -9.085E-04 .            . *          .            .            .
  2.300E+00 -9.102E-04 .            . *          .            .            .
  2.310E+00 -9.119E-04 .            . *          .            .            .
  2.320E+00 -9.136E-04 .            . *          .            .            .
  2.330E+00 -9.153E-04 .            . *          .            .            .
  2.340E+00 -9.170E-04 .            . *          .            .            .
  2.350E+00 -9.186E-04 .            . *          .            .            .
  2.360E+00 -9.202E-04 .            . *          .            .            .
  2.370E+00 -9.218E-04 .            . *          .            .            .
  2.380E+00 -9.234E-04 .            . *          .            .            .
  2.390E+00 -9.249E-04 .            . *          .            .            .
  2.400E+00 -9.265E-04 .            . *          .            .            .
  2.410E+00 -9.280E-04 .            . *          .            .            .
  2.420E+00 -9.295E-04 .            . *          .            .            .
  2.430E+00 -9.309E-04 .            . *          .            .            .
  2.440E+00 -9.324E-04 .            . *          .            .            .
  2.450E+00 -9.338E-04 .            . *          .            .            .
  2.460E+00 -9.352E-04 .            . *          .            .            .
  2.470E+00 -9.366E-04 .            . *          .            .            .
  2.480E+00 -9.380E-04 .            . *          .            .            .
  2.490E+00 -9.393E-04 .            . *          .            .            .
  2.500E+00 -9.407E-04 .            . *          .            .            .
  2.510E+00 -9.420E-04 .            . *          .            .            .
  2.520E+00 -9.433E-04 .            .*           .            .            .
  2.530E+00 -9.445E-04 .            .*           .            .            .
  2.540E+00 -9.458E-04 .            .*           .            .            .
  2.550E+00 -9.470E-04 .            .*           .            .            .
  2.560E+00 -9.482E-04 .            .*           .            .            .
  2.570E+00 -9.494E-04 .            .*           .            .            .
  2.580E+00 -9.505E-04 .            .*           .            .            .
  2.590E+00 -9.517E-04 .            .*           .            .            .
  2.600E+00 -9.528E-04 .            .*           .            .            .
  2.610E+00 -9.539E-04 .            .*           .            .            .
  2.620E+00 -9.550E-04 .            .*           .            .            .
  2.630E+00 -9.560E-04 .            .*           .            .            .
  2.640E+00 -9.571E-04 .            .*           .            .            .
  2.650E+00 -9.581E-04 .            .*           .            .            .
  2.660E+00 -9.591E-04 .            .*           .            .            .
  2.670E+00 -9.601E-04 .            .*           .            .            .
  2.680E+00 -9.610E-04 .            .*           .            .            .
  2.690E+00 -9.620E-04 .            .*           .            .            .
  2.700E+00 -9.629E-04 .            .*           .            .            .
  2.710E+00 -9.638E-04 .            .*           .            .            .
  2.720E+00 -9.646E-04 .            .*           .            .            .
  2.730E+00 -9.655E-04 .            .*           .            .            .
  2.740E+00 -9.663E-04 .            .*           .            .            .
  2.750E+00 -9.671E-04 .            .*           .            .            .
  2.760E+00 -9.679E-04 .            .*           .            .            .
  2.770E+00 -9.687E-04 .            .*           .            .            .
  2.780E+00 -9.694E-04 .            .*           .            .            .
  2.790E+00 -9.701E-04 .            .*           .            .            .
  2.800E+00 -9.709E-04 .            .*           .            .            .
  2.810E+00 -9.715E-04 .            .*           .            .            .
  2.820E+00 -9.722E-04 .            .*           .            .            .
  2.830E+00 -9.728E-04 .            .*           .            .            .
  2.840E+00 -9.735E-04 .            .*           .            .            .
  2.850E+00 -9.741E-04 .            .*           .            .            .
  2.860E+00 -9.746E-04 .            .*           .            .            .
  2.870E+00 -9.752E-04 .            .*           .            .            .
  2.880E+00 -9.757E-04 .            .*           .            .            .
  2.890E+00 -9.763E-04 .            .*           .            .            .
  2.900E+00 -9.767E-04 .            .*           .            .            .
  2.910E+00 -9.772E-04 .            .*           .            .            .
  2.920E+00 -9.777E-04 .            .*           .            .            .
  2.930E+00 -9.781E-04 .            .*           .            .            .
  2.940E+00 -9.785E-04 .            .*           .            .            .
  2.950E+00 -9.789E-04 .            .*           .            .            .
  2.960E+00 -9.793E-04 .            .*           .            .            .
  2.970E+00 -9.796E-04 .            .*           .            .            .
  2.980E+00 -9.800E-04 .            .*           .            .            .
  2.990E+00 -9.803E-04 .            .*           .            .            .
  3.000E+00 -9.805E-04 .            .*           .            .            .
  3.010E+00 -9.808E-04 .            .*           .            .            .
  3.020E+00 -9.810E-04 .            *            .            .            .
  3.030E+00 -9.813E-04 .            *            .            .            .
  3.040E+00 -9.815E-04 .            *            .            .            .
  3.050E+00 -9.816E-04 .            *            .            .            .
  3.060E+00 -9.818E-04 .            *            .            .            .
  3.070E+00 -9.820E-04 .            *            .            .            .
  3.080E+00 -9.822E-04 .            *            .            .            .
  3.090E+00 -9.824E-04 .            *            .            .            .
  3.100E+00 -9.826E-04 .            *            .            .            .
  3.110E+00 -9.828E-04 .            *            .            .            .
  3.120E+00 -9.829E-04 .            *            .            .            .
  3.130E+00 -9.831E-04 .            *            .            .            .
  3.140E+00 -9.833E-04 .            *            .            .            .
  3.150E+00 -9.835E-04 .            *            .            .            .
  3.160E+00 -9.837E-04 .            *            .            .            .
  3.170E+00 -9.839E-04 .            *            .            .            .
  3.180E+00 -9.841E-04 .            *            .            .            .
  3.190E+00 -9.842E-04 .            *            .            .            .
  3.200E+00 -9.844E-04 .            *            .            .            .
  3.210E+00 -9.846E-04 .            *            .            .            .
  3.220E+00 -9.848E-04 .            *            .            .            .
  3.230E+00 -9.850E-04 .            *            .            .            .
  3.240E+00 -9.852E-04 .            *            .            .            .
  3.250E+00 -9.854E-04 .            *            .            .            .
  3.260E+00 -9.855E-04 .            *            .            .            .
  3.270E+00 -9.857E-04 .            *            .            .            .
  3.280E+00 -9.859E-04 .            *            .            .            .
  3.290E+00 -9.861E-04 .            *            .            .            .
  3.300E+00 -9.863E-04 .            *            .            .            .
  3.310E+00 -9.865E-04 .            *            .            .            .
  3.320E+00 -9.866E-04 .            *            .            .            .
  3.330E+00 -9.868E-04 .            *            .            .            .
  3.340E+00 -9.870E-04 .            *            .            .            .
  3.350E+00 -9.872E-04 .            *            .            .            .
  3.360E+00 -9.874E-04 .            *            .            .            .
  3.370E+00 -9.876E-04 .            *            .            .            .
  3.380E+00 -9.878E-04 .            *            .            .            .
  3.390E+00 -9.879E-04 .            *            .            .            .
  3.400E+00 -9.881E-04 .            *            .            .            .
  3.410E+00 -9.883E-04 .            *            .            .            .
  3.420E+00 -9.885E-04 .            *            .            .            .
  3.430E+00 -9.887E-04 .            *            .            .            .
  3.440E+00 -9.889E-04 .            *            .            .            .
  3.450E+00 -9.891E-04 .            *            .            .            .
  3.460E+00 -9.892E-04 .            *            .            .            .
  3.470E+00 -9.894E-04 .            *            .            .            .
  3.480E+00 -9.896E-04 .            *            .            .            .
  3.490E+00 -9.898E-04 .            *            .            .            .
  3.500E+00 -9.900E-04 .            *            .            .            .
  3.510E+00 -9.902E-04 .            *            .            .            .
  3.520E+00 -9.903E-04 .            *            .            .            .
  3.530E+00 -9.905E-04 .            *            .            .            .
  3.540E+00 -9.907E-04 .            *            .            .            .
  3.550E+00 -9.909E-04 .            *            .            .            .
  3.560E+00 -9.911E-04 .            *            .            .            .
  3.570E+00 -9.913E-04 .            *            .            .            .
  3.580E+00 -9.915E-04 .            *            .            .            .
  3.590E+00 -9.916E-04 .            *            .            .            .
  3.600E+00 -9.918E-04 .            *            .            .            .
  3.610E+00 -9.920E-04 .            *            .            .            .
  3.620E+00 -9.922E-04 .            *            .            .            .
  3.630E+00 -9.924E-04 .            *            .            .            .
  3.640E+00 -9.926E-04 .            *            .            .            .
  3.650E+00 -9.928E-04 .            *            .            .            .
  3.660E+00 -9.929E-04 .            *            .            .            .
  3.670E+00 -9.931E-04 .            *            .            .            .
  3.680E+00 -9.933E-04 .            *            .            .            .
  3.690E+00 -9.935E-04 .            *            .            .            .
  3.700E+00 -9.937E-04 .            *            .            .            .
  3.710E+00 -9.939E-04 .            *            .            .            .
  3.720E+00 -9.940E-04 .            *            .            .            .
  3.730E+00 -9.942E-04 .            *            .            .            .
  3.740E+00 -9.944E-04 .            *            .            .            .
  3.750E+00 -9.946E-04 .            *            .            .            .
  3.760E+00 -9.948E-04 .            *            .            .            .
  3.770E+00 -9.950E-04 .            *            .            .            .
  3.780E+00 -9.952E-04 .            *            .            .            .
  3.790E+00 -9.953E-04 .            *            .            .            .
  3.800E+00 -9.955E-04 .            *            .            .            .
  3.810E+00 -9.957E-04 .            *            .            .            .
  3.820E+00 -9.959E-04 .            *            .            .            .
  3.830E+00 -9.961E-04 .            *            .            .            .
  3.840E+00 -9.963E-04 .            *            .            .            .
  3.850E+00 -9.965E-04 .            *            .            .            .
  3.860E+00 -9.966E-04 .            *            .            .            .
  3.870E+00 -9.968E-04 .            *            .            .            .
  3.880E+00 -9.970E-04 .            *            .            .            .
  3.890E+00 -9.972E-04 .            *            .            .            .
  3.900E+00 -9.974E-04 .            *            .            .            .
  3.910E+00 -9.976E-04 .            *            .            .            .
  3.920E+00 -9.977E-04 .            *            .            .            .
  3.930E+00 -9.979E-04 .            *            .            .            .
  3.940E+00 -9.981E-04 .            *            .            .            .
  3.950E+00 -9.983E-04 .            *            .            .            .
  3.960E+00 -9.985E-04 .            *            .            .            .
  3.970E+00 -9.987E-04 .            *            .            .            .
  3.980E+00 -9.989E-04 .            *            .            .            .
  3.990E+00 -9.990E-04 .            *            .            .            .
  4.000E+00 -9.992E-04 .            *            .            .            .
  4.010E+00 -9.994E-04 .            *            .            .            .
  4.020E+00 -9.996E-04 .            *            .            .            .
  4.030E+00 -9.998E-04 .            *            .            .            .
  4.040E+00 -1.000E-03 .            *            .            .            .
  4.050E+00 -1.000E-03 .            *            .            .            .
  4.060E+00 -1.000E-03 .            *            .            .            .
  4.070E+00 -1.001E-03 .            *            .            .            .
  4.080E+00 -1.001E-03 .            *            .            .            .
  4.090E+00 -1.001E-03 .            *            .            .            .
  4.100E+00 -1.001E-03 .            *            .            .            .
  4.110E+00 -1.001E-03 .            *            .            .            .
  4.120E+00 -1.001E-03 .            *            .            .            .
  4.130E+00 -1.002E-03 .            *            .            .            .
  4.140E+00 -1.002E-03 .            *            .            .            .
  4.150E+00 -1.002E-03 .            *            .            .            .
  4.160E+00 -1.002E-03 .            *            .            .            .
  4.170E+00 -1.002E-03 .            *            .            .            .
  4.180E+00 -1.003E-03 .            *            .            .            .
  4.190E+00 -1.003E-03 .            *            .            .            .
  4.200E+00 -1.003E-03 .            *            .            .            .
  4.210E+00 -1.003E-03 .            *            .            .            .
  4.220E+00 -1.003E-03 .            *            .            .            .
  4.230E+00 -1.003E-03 .            *            .            .            .
  4.240E+00 -1.004E-03 .            *            .            .            .
  4.250E+00 -1.004E-03 .            *            .            .            .
  4.260E+00 -1.004E-03 .            *            .            .            .
  4.270E+00 -1.004E-03 .            *            .            .            .
  4.280E+00 -1.004E-03 .            *            .            .            .
  4.290E+00 -1.005E-03 .            *            .            .            .
  4.300E+00 -1.005E-03 .            *            .            .            .
  4.310E+00 -1.005E-03 .            *            .            .            .
  4.320E+00 -1.005E-03 .            *            .            .            .
  4.330E+00 -1.005E-03 .            *            .            .            .
  4.340E+00 -1.006E-03 .            *            .            .            .
  4.350E+00 -1.006E-03 .            *            .            .            .
  4.360E+00 -1.006E-03 .            *            .            .            .
  4.370E+00 -1.006E-03 .            *            .            .            .
  4.380E+00 -1.006E-03 .            *            .            .            .
  4.390E+00 -1.006E-03 .            *            .            .            .
  4.400E+00 -1.007E-03 .            *            .            .            .
  4.410E+00 -1.007E-03 .            *            .            .            .
  4.420E+00 -1.007E-03 .            *            .            .            .
  4.430E+00 -1.007E-03 .            *            .            .            .
  4.440E+00 -1.007E-03 .            *            .            .            .
  4.450E+00 -1.008E-03 .            *            .            .            .
  4.460E+00 -1.008E-03 .            *            .            .            .
  4.470E+00 -1.008E-03 .            *            .            .            .
  4.480E+00 -1.008E-03 .            *            .            .            .
  4.490E+00 -1.008E-03 .            *            .            .            .
  4.500E+00 -1.008E-03 .            *            .            .            .
  4.510E+00 -1.009E-03 .            *            .            .            .
  4.520E+00 -1.009E-03 .            *            .            .            .
  4.530E+00 -1.009E-03 .            *            .            .            .
  4.540E+00 -1.009E-03 .            *            .            .            .
  4.550E+00 -1.009E-03 .            *            .            .            .
  4.560E+00 -1.010E-03 .            *            .            .            .
  4.570E+00 -1.010E-03 .            *            .            .            .
  4.580E+00 -1.010E-03 .            *            .            .            .
  4.590E+00 -1.010E-03 .            *            .            .            .
  4.600E+00 -1.010E-03 .            *            .            .            .
  4.610E+00 -1.011E-03 .            *            .            .            .
  4.620E+00 -1.011E-03 .            *            .            .            .
  4.630E+00 -1.011E-03 .            *            .            .            .
  4.640E+00 -1.011E-03 .            *            .            .            .
  4.650E+00 -1.011E-03 .            *            .            .            .
  4.660E+00 -1.011E-03 .            *            .            .            .
  4.670E+00 -1.012E-03 .            *            .            .            .
  4.680E+00 -1.012E-03 .            *            .            .            .
  4.690E+00 -1.012E-03 .            *            .            .            .
  4.700E+00 -1.012E-03 .            *            .            .            .
  4.710E+00 -1.012E-03 .            *            .            .            .
  4.720E+00 -1.013E-03 .            *            .            .            .
  4.730E+00 -1.013E-03 .            *            .            .            .
  4.740E+00 -1.013E-03 .            *            .            .            .
  4.750E+00 -1.013E-03 .            *            .            .            .
  4.760E+00 -1.013E-03 .            *            .            .            .
  4.770E+00 -1.013E-03 .            *            .            .            .
  4.780E+00 -1.014E-03 .            *            .            .            .
  4.790E+00 -1.014E-03 .            *            .            .            .
  4.800E+00 -1.014E-03 .            *            .            .            .
  4.810E+00 -1.014E-03 .            *            .            .            .
  4.820E+00 -1.014E-03 .            *            .            .            .
  4.830E+00 -1.015E-03 .            *            .            .            .
  4.840E+00 -1.015E-03 .            *            .            .            .
  4.850E+00 -1.015E-03 .            *            .            .            .
  4.860E+00 -1.015E-03 .            *            .            .            .
  4.870E+00 -1.015E-03 .            *            .            .            .
  4.880E+00 -1.016E-03 .            *            .            .            .
  4.890E+00 -1.016E-03 .            *            .            .            .
  4.900E+00 -1.016E-03 .            *            .            .            .
  4.910E+00 -1.016E-03 .            *            .            .            .
  4.920E+00 -1.016E-03 .            *            .            .            .
  4.930E+00 -1.016E-03 .            *            .            .            .
  4.940E+00 -1.017E-03 .            *            .            .            .
  4.950E+00 -1.017E-03 .            *            .            .            .
  4.960E+00 -1.017E-03 .            *            .            .            .
  4.970E+00 -1.017E-03 .            *            .            .            .
  4.980E+00 -1.017E-03 .            *            .            .            .
  4.990E+00 -1.018E-03 .            *            .            .            .
  5.000E+00 -1.018E-03 .            *            .            .            .
  5.010E+00 -1.018E-03 .            *            .            .            .
  5.020E+00 -1.018E-03 .            *            .            .            .
  5.030E+00 -1.018E-03 .            *            .            .            .
  5.040E+00 -1.018E-03 .            *            .            .            .
  5.050E+00 -1.019E-03 .            *            .            .            .
  5.060E+00 -1.019E-03 .            *            .            .            .
  5.070E+00 -1.019E-03 .            *            .            .            .
  5.080E+00 -1.019E-03 .            *            .            .            .
  5.090E+00 -1.019E-03 .           *.            .            .            .
  5.100E+00 -1.020E-03 .           *.            .            .            .
  5.110E+00 -1.020E-03 .           *.            .            .            .
  5.120E+00 -1.020E-03 .           *.            .            .            .
  5.130E+00 -1.020E-03 .           *.            .            .            .
  5.140E+00 -1.020E-03 .           *.            .            .            .
  5.150E+00 -1.021E-03 .           *.            .            .            .
  5.160E+00 -1.021E-03 .           *.            .            .            .
  5.170E+00 -1.021E-03 .           *.            .            .            .
  5.180E+00 -1.021E-03 .           *.            .            .            .
  5.190E+00 -1.021E-03 .           *.            .            .            .
  5.200E+00 -1.021E-03 .           *.            .            .            .
  5.210E+00 -1.022E-03 .           *.            .            .            .
  5.220E+00 -1.022E-03 .           *.            .            .            .
  5.230E+00 -1.022E-03 .           *.            .            .            .
  5.240E+00 -1.022E-03 .           *.            .            .            .
  5.250E+00 -1.022E-03 .           *.            .            .            .
  5.260E+00 -1.023E-03 .           *.            .            .            .
  5.270E+00 -1.023E-03 .           *.            .            .            .
  5.280E+00 -1.023E-03 .           *.            .            .            .
  5.290E+00 -1.023E-03 .           *.            .            .            .
  5.300E+00 -1.023E-03 .           *.            .            .            .
  5.310E+00 -1.023E-03 .           *.            .            .            .
  5.320E+00 -1.024E-03 .           *.            .            .            .
  5.330E+00 -1.024E-03 .           *.            .            .            .
  5.340E+00 -1.024E-03 .           *.            .            .            .
  5.350E+00 -1.024E-03 .           *.            .            .            .
  5.360E+00 -1.024E-03 .           *.            .            .            .
  5.370E+00 -1.025E-03 .           *.            .            .            .
  5.380E+00 -1.025E-03 .           *.            .            .            .
  5.390E+00 -1.025E-03 .           *.            .            .            .
  5.400E+00 -1.025E-03 .           *.            .            .            .
  5.410E+00 -1.025E-03 .           *.            .            .            .
  5.420E+00 -1.026E-03 .           *.            .            .            .
  5.430E+00 -1.026E-03 .           *.            .            .            .
  5.440E+00 -1.026E-03 .           *.            .            .            .
  5.450E+00 -1.026E-03 .           *.            .            .            .
  5.460E+00 -1.026E-03 .           *.            .            .            .
  5.470E+00 -1.026E-03 .           *.            .            .            .
  5.480E+00 -1.027E-03 .           *.            .            .            .
  5.490E+00 -1.027E-03 .           *.            .            .            .
  5.500E+00 -1.027E-03 .           *.            .            .            .
  5.510E+00 -1.027E-03 .           *.            .            .            .
  5.520E+00 -1.027E-03 .           *.            .            .            .
  5.530E+00 -1.028E-03 .           *.            .            .            .
  5.540E+00 -1.028E-03 .           *.            .            .            .
  5.550E+00 -1.028E-03 .           *.            .            .            .
  5.560E+00 -1.028E-03 .           *.            .            .            .
  5.570E+00 -1.028E-03 .           *.            .            .            .
  5.580E+00 -1.028E-03 .           *.            .            .            .
  5.590E+00 -1.029E-03 .           *.            .            .            .
  5.600E+00 -1.029E-03 .           *.            .            .            .
  5.610E+00 -1.029E-03 .           *.            .            .            .
  5.620E+00 -1.029E-03 .           *.            .            .            .
  5.630E+00 -1.029E-03 .           *.            .            .            .
  5.640E+00 -1.030E-03 .           *.            .            .            .
  5.650E+00 -1.030E-03 .           *.            .            .            .
  5.660E+00 -1.030E-03 .           *.            .            .            .
  5.670E+00 -1.030E-03 .           *.            .            .            .
  5.680E+00 -1.030E-03 .           *.            .            .            .
  5.690E+00 -1.031E-03 .           *.            .            .            .
  5.700E+00 -1.031E-03 .           *.            .            .            .
  5.710E+00 -1.031E-03 .           *.            .            .            .
  5.720E+00 -1.031E-03 .           *.            .            .            .
  5.730E+00 -1.031E-03 .           *.            .            .            .
  5.740E+00 -1.031E-03 .           *.            .            .            .
  5.750E+00 -1.032E-03 .           *.            .            .            .
  5.760E+00 -1.032E-03 .           *.            .            .            .
  5.770E+00 -1.032E-03 .           *.            .            .            .
  5.780E+00 -1.032E-03 .           *.            .            .            .
  5.790E+00 -1.032E-03 .           *.            .            .            .
  5.800E+00 -1.033E-03 .           *.            .            .            .
  5.810E+00 -1.033E-03 .           *.            .            .            .
  5.820E+00 -1.033E-03 .           *.            .            .            .
  5.830E+00 -1.033E-03 .           *.            .            .            .
  5.840E+00 -1.033E-03 .           *.            .            .            .
  5.850E+00 -1.033E-03 .           *.            .            .            .
  5.860E+00 -1.034E-03 .           *.            .            .            .
  5.870E+00 -1.034E-03 .           *.            .            .            .
  5.880E+00 -1.034E-03 .           *.            .            .            .
  5.890E+00 -1.034E-03 .           *.            .            .            .
  5.900E+00 -1.034E-03 .           *.            .            .            .
  5.910E+00 -1.035E-03 .           *.            .            .            .
  5.920E+00 -1.035E-03 .           *.            .            .            .
  5.930E+00 -1.035E-03 .           *.            .            .            .
  5.940E+00 -1.035E-03 .           *.            .            .            .
  5.950E+00 -1.035E-03 .           *.            .            .            .
  5.960E+00 -1.036E-03 .           *.            .            .            .
  5.970E+00 -1.036E-03 .           *.            .            .            .
  5.980E+00 -1.036E-03 .           *.            .            .            .
  5.990E+00 -1.036E-03 .           *.            .            .            .
  6.000E+00 -1.036E-03 .           *.            .            .            .
  6.010E+00 -1.036E-03 .           *.            .            .            .
  6.020E+00 -1.037E-03 .           *.            .            .            .
  6.030E+00 -1.037E-03 .           *.            .            .            .
  6.040E+00 -1.037E-03 .           *.            .            .            .
  6.050E+00 -1.037E-03 .           *.            .            .            .
  6.060E+00 -1.037E-03 .           *.            .            .            .
  6.070E+00 -1.038E-03 .           *.            .            .            .
  6.080E+00 -1.038E-03 .           *.            .            .            .
  6.090E+00 -1.038E-03 .           *.            .            .            .
  6.100E+00 -1.038E-03 .           *.            .            .            .
  6.110E+00 -1.038E-03 .           *.            .            .            .
  6.120E+00 -1.038E-03 .           *.            .            .            .
  6.130E+00 -1.039E-03 .           *.            .            .            .
  6.140E+00 -1.039E-03 .           *.            .            .            .
  6.150E+00 -1.039E-03 .           *.            .            .            .
  6.160E+00 -1.039E-03 .           *.            .            .            .
  6.170E+00 -1.039E-03 .           *.            .            .            .
  6.180E+00 -1.040E-03 .           *.            .            .            .
  6.190E+00 -1.040E-03 .           *.            .            .            .
  6.200E+00 -1.040E-03 .           *.            .            .            .
  6.210E+00 -1.040E-03 .           *.            .            .            .
  6.220E+00 -1.040E-03 .           *.            .            .            .
  6.230E+00 -1.040E-03 .           *.            .            .            .
  6.240E+00 -1.041E-03 .           *.            .            .            .
  6.250E+00 -1.041E-03 .           *.            .            .            .
  6.260E+00 -1.041E-03 .           *.            .            .            .
  6.270E+00 -1.041E-03 .           *.            .            .            .
  6.280E+00 -1.041E-03 .           *.            .            .            .
  6.290E+00 -1.042E-03 .           *.            .            .            .
  6.300E+00 -1.042E-03 .           *.            .            .            .
  6.310E+00 -1.042E-03 .           *.            .            .            .
  6.320E+00 -1.042E-03 .           *.            .            .            .
  6.330E+00 -1.042E-03 .           *.            .            .            .
  6.340E+00 -1.043E-03 .           *.            .            .            .
  6.350E+00 -1.043E-03 .           *.            .            .            .
  6.360E+00 -1.043E-03 .           *.            .            .            .
  6.370E+00 -1.043E-03 .           *.            .            .            .
  6.380E+00 -1.043E-03 .           *.            .            .            .
  6.390E+00 -1.043E-03 .           *.            .            .            .
  6.400E+00 -1.044E-03 .           *.            .            .            .
  6.410E+00 -1.044E-03 .           *.            .            .            .
  6.420E+00 -1.044E-03 .           *.            .            .            .
  6.430E+00 -1.044E-03 .           *.            .            .            .
  6.440E+00 -1.044E-03 .           *.            .            .            .
  6.450E+00 -1.045E-03 .           *.            .            .            .
  6.460E+00 -1.045E-03 .           *.            .            .            .
  6.470E+00 -1.045E-03 .           *.            .            .            .
  6.480E+00 -1.045E-03 .           *.            .            .            .
  6.490E+00 -1.045E-03 .           *.            .            .            .
  6.500E+00 -1.045E-03 .           *.            .            .            .
  6.510E+00 -1.046E-03 .           *.            .            .            .
  6.520E+00 -1.046E-03 .           *.            .            .            .
  6.530E+00 -1.046E-03 .           *.            .            .            .
  6.540E+00 -1.046E-03 .           *.            .            .            .
  6.550E+00 -1.046E-03 .           *.            .            .            .
  6.560E+00 -1.047E-03 .           *.            .            .            .
  6.570E+00 -1.047E-03 .           *.            .            .            .
  6.580E+00 -1.047E-03 .           *.            .            .            .
  6.590E+00 -1.047E-03 .           *.            .            .            .
  6.600E+00 -1.047E-03 .           *.            .            .            .
  6.610E+00 -1.048E-03 .           *.            .            .            .
  6.620E+00 -1.048E-03 .           *.            .            .            .
  6.630E+00 -1.048E-03 .           *.            .            .            .
  6.640E+00 -1.048E-03 .           *.            .            .            .
  6.650E+00 -1.048E-03 .           *.            .            .            .
  6.660E+00 -1.048E-03 .           *.            .            .            .
  6.670E+00 -1.049E-03 .           *.            .            .            .
  6.680E+00 -1.049E-03 .           *.            .            .            .
  6.690E+00 -1.049E-03 .           *.            .            .            .
  6.700E+00 -1.049E-03 .           *.            .            .            .
  6.710E+00 -1.049E-03 .           *.            .            .            .
  6.720E+00 -1.050E-03 .           *.            .            .            .
  6.730E+00 -1.050E-03 .           *.            .            .            .
  6.740E+00 -1.050E-03 .           *.            .            .            .
  6.750E+00 -1.050E-03 .           *.            .            .            .
  6.760E+00 -1.050E-03 .           *.            .            .            .
  6.770E+00 -1.050E-03 .           *.            .            .            .
  6.780E+00 -1.051E-03 .           *.            .            .            .
  6.790E+00 -1.051E-03 .           *.            .            .            .
  6.800E+00 -1.051E-03 .           *.            .            .            .
  6.810E+00 -1.051E-03 .           *.            .            .            .
  6.820E+00 -1.051E-03 .           *.            .            .            .
  6.830E+00 -1.052E-03 .           *.            .            .            .
  6.840E+00 -1.052E-03 .           *.            .            .            .
  6.850E+00 -1.052E-03 .           *.            .            .            .
  6.860E+00 -1.052E-03 .           *.            .            .            .
  6.870E+00 -1.052E-03 .           *.            .            .            .
  6.880E+00 -1.053E-03 .           *.            .            .            .
  6.890E+00 -1.053E-03 .           *.            .            .            .
  6.900E+00 -1.053E-03 .           *.            .            .            .
  6.910E+00 -1.053E-03 .           *.            .            .            .
  6.920E+00 -1.053E-03 .           *.            .            .            .
  6.930E+00 -1.053E-03 .           *.            .            .            .
  6.940E+00 -1.054E-03 .           *.            .            .            .
  6.950E+00 -1.054E-03 .           *.            .            .            .
  6.960E+00 -1.054E-03 .           *.            .            .            .
  6.970E+00 -1.054E-03 .           *.            .            .            .
  6.980E+00 -1.054E-03 .           *.            .            .            .
  6.990E+00 -1.055E-03 .           *.            .            .            .
  7.000E+00 -1.055E-03 .           *.            .            .            .
  7.010E+00 -1.055E-03 .           *.            .            .            .
  7.020E+00 -1.055E-03 .           *.            .            .            .
  7.030E+00 -1.055E-03 .           *.            .            .            .
  7.040E+00 -1.055E-03 .           *.            .            .            .
  7.050E+00 -1.056E-03 .           *.            .            .            .
  7.060E+00 -1.056E-03 .           *.            .            .            .
  7.070E+00 -1.056E-03 .           *.            .            .            .
  7.080E+00 -1.056E-03 .           *.            .            .            .
  7.090E+00 -1.056E-03 .           *.            .            .            .
  7.100E+00 -1.057E-03 .           *.            .            .            .
  7.110E+00 -1.057E-03 .           *.            .            .            .
  7.120E+00 -1.057E-03 .           *.            .            .            .
  7.130E+00 -1.057E-03 .           *.            .            .            .
  7.140E+00 -1.057E-03 .           *.            .            .            .
  7.150E+00 -1.058E-03 .           *.            .            .            .
  7.160E+00 -1.058E-03 .           *.            .            .            .
  7.170E+00 -1.058E-03 .          * .            .            .            .
  7.180E+00 -1.058E-03 .          * .            .            .            .
  7.190E+00 -1.058E-03 .          * .            .            .            .
  7.200E+00 -1.058E-03 .          * .            .            .            .
  7.210E+00 -1.059E-03 .          * .            .            .            .
  7.220E+00 -1.059E-03 .          * .            .            .            .
  7.230E+00 -1.059E-03 .          * .            .            .            .
  7.240E+00 -1.059E-03 .          * .            .            .            .
  7.250E+00 -1.059E-03 .          * .            .            .            .
  7.260E+00 -1.060E-03 .          * .            .            .            .
  7.270E+00 -1.060E-03 .          * .            .            .            .
  7.280E+00 -1.060E-03 .          * .            .            .            .
  7.290E+00 -1.060E-03 .          * .            .            .            .
  7.300E+00 -1.060E-03 .          * .            .            .            .
  7.310E+00 -1.060E-03 .          * .            .            .            .
  7.320E+00 -1.061E-03 .          * .            .            .            .
  7.330E+00 -1.061E-03 .          * .            .            .            .
  7.340E+00 -1.061E-03 .          * .            .            .            .
  7.350E+00 -1.061E-03 .          * .            .            .            .
  7.360E+00 -1.061E-03 .          * .            .            .            .
  7.370E+00 -1.062E-03 .          * .            .            .            .
  7.380E+00 -1.062E-03 .          * .            .            .            .
  7.390E+00 -1.062E-03 .          * .            .            .            .
  7.400E+00 -1.062E-03 .          * .            .            .            .
  7.410E+00 -1.062E-03 .          * .            .            .            .
  7.420E+00 -1.063E-03 .          * .            .            .            .
  7.430E+00 -1.063E-03 .          * .            .            .            .
  7.440E+00 -1.063E-03 .          * .            .            .            .
  7.450E+00 -1.063E-03 .          * .            .            .            .
  7.460E+00 -1.063E-03 .          * .            .            .            .
  7.470E+00 -1.063E-03 .          * .            .            .            .
  7.480E+00 -1.064E-03 .          * .            .            .            .
  7.490E+00 -1.064E-03 .          * .            .            .            .
  7.500E+00 -1.064E-03 .          * .            .            .            .
  7.510E+00 -1.064E-03 .          * .            .            .            .
  7.520E+00 -1.064E-03 .          * .            .            .            .
  7.530E+00 -1.065E-03 .          * .            .            .            .
  7.540E+00 -1.065E-03 .          * .            .            .            .
  7.550E+00 -1.065E-03 .          * .            .            .            .
  7.560E+00 -1.065E-03 .          * .            .            .            .
  7.570E+00 -1.065E-03 .          * .            .            .            .
  7.580E+00 -1.065E-03 .          * .            .            .            .
  7.590E+00 -1.066E-03 .          * .            .            .            .
  7.600E+00 -1.066E-03 .          * .            .            .            .
  7.610E+00 -1.066E-03 .          * .            .            .            .
  7.620E+00 -1.066E-03 .          * .            .            .            .
  7.630E+00 -1.066E-03 .          * .            .            .            .
  7.640E+00 -1.067E-03 .          * .            .            .            .
  7.650E+00 -1.067E-03 .          * .            .            .            .
  7.660E+00 -1.067E-03 .          * .            .            .            .
  7.670E+00 -1.067E-03 .          * .            .            .            .
  7.680E+00 -1.067E-03 .          * .            .            .            .
  7.690E+00 -1.068E-03 .          * .            .            .            .
  7.700E+00 -1.068E-03 .          * .            .            .            .
  7.710E+00 -1.068E-03 .          * .            .            .            .
  7.720E+00 -1.068E-03 .          * .            .            .            .
  7.730E+00 -1.068E-03 .          * .            .            .            .
  7.740E+00 -1.068E-03 .          * .            .            .            .
  7.750E+00 -1.069E-03 .          * .            .            .            .
  7.760E+00 -1.069E-03 .          * .            .            .            .
  7.770E+00 -1.069E-03 .          * .            .            .            .
  7.780E+00 -1.069E-03 .          * .            .            .            .
  7.790E+00 -1.069E-03 .          * .            .            .            .
  7.800E+00 -1.070E-03 .          * .            .            .            .
  7.810E+00 -1.070E-03 .          * .            .            .            .
  7.820E+00 -1.070E-03 .          * .            .            .            .
  7.830E+00 -1.070E-03 .          * .            .            .            .
  7.840E+00 -1.070E-03 .          * .            .            .            .
  7.850E+00 -1.070E-03 .          * .            .            .            .
  7.860E+00 -1.071E-03 .          * .            .            .            .
  7.870E+00 -1.071E-03 .          * .            .            .            .
  7.880E+00 -1.071E-03 .          * .            .            .            .
  7.890E+00 -1.071E-03 .          * .            .            .            .
  7.900E+00 -1.071E-03 .          * .            .            .            .
  7.910E+00 -1.072E-03 .          * .            .            .            .
  7.920E+00 -1.072E-03 .          * .            .            .            .
  7.930E+00 -1.072E-03 .          * .            .            .            .
  7.940E+00 -1.072E-03 .          * .            .            .            .
  7.950E+00 -1.072E-03 .          * .            .            .            .
  7.960E+00 -1.073E-03 .          * .            .            .            .
  7.970E+00 -1.073E-03 .          * .            .            .            .
  7.980E+00 -1.073E-03 .          * .            .            .            .
  7.990E+00 -1.073E-03 .          * .            .            .            .
  8.000E+00 -1.073E-03 .          * .            .            .            .
  8.010E+00 -1.073E-03 .          * .            .            .            .
  8.020E+00 -1.074E-03 .          * .            .            .            .
  8.030E+00 -1.074E-03 .          * .            .            .            .
  8.040E+00 -1.074E-03 .          * .            .            .            .
  8.050E+00 -1.074E-03 .          * .            .            .            .
  8.060E+00 -1.074E-03 .          * .            .            .            .
  8.070E+00 -1.075E-03 .          * .            .            .            .
  8.080E+00 -1.075E-03 .          * .            .            .            .
  8.090E+00 -1.075E-03 .          * .            .            .            .
  8.100E+00 -1.075E-03 .          * .            .            .            .
  8.110E+00 -1.075E-03 .          * .            .            .            .
  8.120E+00 -1.075E-03 .          * .            .            .            .
  8.130E+00 -1.076E-03 .          * .            .            .            .
  8.140E+00 -1.076E-03 .          * .            .            .            .
  8.150E+00 -1.076E-03 .          * .            .            .            .
  8.160E+00 -1.076E-03 .          * .            .            .            .
  8.170E+00 -1.076E-03 .          * .            .            .            .
  8.180E+00 -1.077E-03 .          * .            .            .            .
  8.190E+00 -1.077E-03 .          * .            .            .            .
  8.200E+00 -1.077E-03 .          * .            .            .            .
  8.210E+00 -1.077E-03 .          * .            .            .            .
  8.220E+00 -1.077E-03 .          * .            .            .            .
  8.230E+00 -1.078E-03 .          * .            .            .            .
  8.240E+00 -1.078E-03 .          * .            .            .            .
  8.250E+00 -1.078E-03 .          * .            .            .            .
  8.260E+00 -1.078E-03 .          * .            .            .            .
  8.270E+00 -1.078E-03 .          * .            .            .            .
  8.280E+00 -1.078E-03 .          * .            .            .            .
  8.290E+00 -1.079E-03 .          * .            .            .            .
  8.300E+00 -1.079E-03 .          * .            .            .            .
  8.310E+00 -1.079E-03 .          * .            .            .            .
  8.320E+00 -1.079E-03 .          * .            .            .            .
  8.330E+00 -1.079E-03 .          * .            .            .            .
  8.340E+00 -1.080E-03 .          * .            .            .            .
  8.350E+00 -1.080E-03 .          * .            .            .            .
  8.360E+00 -1.080E-03 .          * .            .            .            .
  8.370E+00 -1.080E-03 .          * .            .            .            .
  8.380E+00 -1.080E-03 .          * .            .            .            .
  8.390E+00 -1.080E-03 .          * .            .            .            .
  8.400E+00 -1.081E-03 .          * .            .            .            .
  8.410E+00 -1.081E-03 .          * .            .            .            .
  8.420E+00 -1.081E-03 .          * .            .            .            .
  8.430E+00 -1.081E-03 .          * .            .            .            .
  8.440E+00 -1.081E-03 .          * .            .            .            .
  8.450E+00 -1.082E-03 .          * .            .            .            .
  8.460E+00 -1.082E-03 .          * .            .            .            .
  8.470E+00 -1.082E-03 .          * .            .            .            .
  8.480E+00 -1.082E-03 .          * .            .            .            .
  8.490E+00 -1.082E-03 .          * .            .            .            .
  8.500E+00 -1.083E-03 .          * .            .            .            .
  8.510E+00 -1.083E-03 .          * .            .            .            .
  8.520E+00 -1.083E-03 .          * .            .            .            .
  8.530E+00 -1.083E-03 .          * .            .            .            .
  8.540E+00 -1.083E-03 .          * .            .            .            .
  8.550E+00 -1.083E-03 .          * .            .            .            .
  8.560E+00 -1.084E-03 .          * .            .            .            .
  8.570E+00 -1.084E-03 .          * .            .            .            .
  8.580E+00 -1.084E-03 .          * .            .            .            .
  8.590E+00 -1.084E-03 .          * .            .            .            .
  8.600E+00 -1.084E-03 .          * .            .            .            .
  8.610E+00 -1.085E-03 .          * .            .            .            .
  8.620E+00 -1.085E-03 .          * .            .            .            .
  8.630E+00 -1.085E-03 .          * .            .            .            .
  8.640E+00 -1.085E-03 .          * .            .            .            .
  8.650E+00 -1.085E-03 .          * .            .            .            .
  8.660E+00 -1.085E-03 .          * .            .            .            .
  8.670E+00 -1.086E-03 .          * .            .            .            .
  8.680E+00 -1.086E-03 .          * .            .            .            .
  8.690E+00 -1.086E-03 .          * .            .            .            .
  8.700E+00 -1.086E-03 .          * .            .            .            .
  8.710E+00 -1.086E-03 .          * .            .            .            .
  8.720E+00 -1.087E-03 .          * .            .            .            .
  8.730E+00 -1.087E-03 .          * .            .            .            .
  8.740E+00 -1.087E-03 .          * .            .            .            .
  8.750E+00 -1.087E-03 .          * .            .            .            .
  8.760E+00 -1.087E-03 .          * .            .            .            .
  8.770E+00 -1.087E-03 .          * .            .            .            .
  8.780E+00 -1.088E-03 .          * .            .            .            .
  8.790E+00 -1.088E-03 .          * .            .            .            .
  8.800E+00 -1.088E-03 .          * .            .            .            .
  8.810E+00 -1.088E-03 .          * .            .            .            .
  8.820E+00 -1.088E-03 .          * .            .            .            .
  8.830E+00 -1.089E-03 .          * .            .            .            .
  8.840E+00 -1.089E-03 .          * .            .            .            .
  8.850E+00 -1.089E-03 .          * .            .            .            .
  8.860E+00 -1.089E-03 .          * .            .            .            .
  8.870E+00 -1.089E-03 .          * .            .            .            .
  8.880E+00 -1.090E-03 .          * .            .            .            .
  8.890E+00 -1.090E-03 .          * .            .            .            .
  8.900E+00 -1.090E-03 .          * .            .            .            .
  8.910E+00 -1.090E-03 .          * .            .            .            .
  8.920E+00 -1.090E-03 .          * .            .            .            .
  8.930E+00 -1.090E-03 .          * .            .            .            .
  8.940E+00 -1.091E-03 .          * .            .            .            .
  8.950E+00 -1.091E-03 .          * .            .            .            .
  8.960E+00 -1.091E-03 .          * .            .            .            .
  8.970E+00 -1.091E-03 .          * .            .            .            .
  8.980E+00 -1.091E-03 .          * .            .            .            .
  8.990E+00 -1.092E-03 .          * .            .            .            .
  9.000E+00 -1.092E-03 .          * .            .            .            .
  9.010E+00 -1.092E-03 .          * .            .            .            .
  9.020E+00 -1.092E-03 .          * .            .            .            .
  9.030E+00 -1.092E-03 .          * .            .            .            .
  9.040E+00 -1.092E-03 .          * .            .            .            .
  9.050E+00 -1.093E-03 .          * .            .            .            .
  9.060E+00 -1.093E-03 .          * .            .            .            .
  9.070E+00 -1.093E-03 .          * .            .            .            .
  9.080E+00 -1.093E-03 .          * .            .            .            .
  9.090E+00 -1.093E-03 .          * .            .            .            .
  9.100E+00 -1.094E-03 .          * .            .            .            .
  9.110E+00 -1.094E-03 .          * .            .            .            .
  9.120E+00 -1.094E-03 .          * .            .            .            .
  9.130E+00 -1.094E-03 .          * .            .            .            .
  9.140E+00 -1.094E-03 .          * .            .            .            .
  9.150E+00 -1.095E-03 .          * .            .            .            .
  9.160E+00 -1.095E-03 .          * .            .            .            .
  9.170E+00 -1.095E-03 .          * .            .            .            .
  9.180E+00 -1.095E-03 .          * .            .            .            .
  9.190E+00 -1.095E-03 .          * .            .            .            .
  9.200E+00 -1.095E-03 .          * .            .            .            .
  9.210E+00 -1.096E-03 .          * .            .            .            .
  9.220E+00 -1.096E-03 .          * .            .            .            .
  9.230E+00 -1.096E-03 .          * .            .            .            .
  9.240E+00 -1.096E-03 .          * .            .            .            .
  9.250E+00 -1.096E-03 .         *  .            .            .            .
  9.260E+00 -1.097E-03 .         *  .            .            .            .
  9.270E+00 -1.097E-03 .         *  .            .            .            .
  9.280E+00 -1.097E-03 .         *  .            .            .            .
  9.290E+00 -1.097E-03 .         *  .            .            .            .
  9.300E+00 -1.097E-03 .         *  .            .            .            .
  9.310E+00 -1.097E-03 .         *  .            .            .            .
  9.320E+00 -1.098E-03 .         *  .            .            .            .
  9.330E+00 -1.098E-03 .         *  .            .            .            .
  9.340E+00 -1.098E-03 .         *  .            .            .            .
  9.350E+00 -1.098E-03 .         *  .            .            .            .
  9.360E+00 -1.098E-03 .         *  .            .            .            .
  9.370E+00 -1.099E-03 .         *  .            .            .            .
  9.380E+00 -1.099E-03 .         *  .            .            .            .
  9.390E+00 -1.099E-03 .         *  .            .            .            .
  9.400E+00 -1.099E-03 .         *  .            .            .            .
  9.410E+00 -1.099E-03 .         *  .            .            .            .
  9.420E+00 -1.100E-03 .         *  .            .            .            .
  9.430E+00 -1.100E-03 .         *  .            .            .            .
  9.440E+00 -1.100E-03 .         *  .            .            .            .
  9.450E+00 -1.100E-03 .         *  .            .            .            .
  9.460E+00 -1.100E-03 .         *  .            .            .            .
  9.470E+00 -1.100E-03 .         *  .            .            .            .
  9.480E+00 -1.101E-03 .         *  .            .            .            .
  9.490E+00 -1.101E-03 .         *  .            .            .            .
  9.500E+00 -1.101E-03 .         *  .            .            .            .
  9.510E+00 -1.101E-03 .         *  .            .            .            .
  9.520E+00 -1.101E-03 .         *  .            .            .            .
  9.530E+00 -1.102E-03 .         *  .            .            .            .
  9.540E+00 -1.102E-03 .         *  .            .            .            .
  9.550E+00 -1.102E-03 .         *  .            .            .            .
  9.560E+00 -1.102E-03 .         *  .            .            .            .
  9.570E+00 -1.102E-03 .         *  .            .            .            .
  9.580E+00 -1.102E-03 .         *  .            .            .            .
  9.590E+00 -1.103E-03 .         *  .            .            .            .
  9.600E+00 -1.103E-03 .         *  .            .            .            .
  9.610E+00 -1.103E-03 .         *  .            .            .            .
  9.620E+00 -1.103E-03 .         *  .            .            .            .
  9.630E+00 -1.103E-03 .         *  .            .            .            .
  9.640E+00 -1.104E-03 .         *  .            .            .            .
  9.650E+00 -1.104E-03 .         *  .            .            .            .
  9.660E+00 -1.104E-03 .         *  .            .            .            .
  9.670E+00 -1.104E-03 .         *  .            .            .            .
  9.680E+00 -1.104E-03 .         *  .            .            .            .
  9.690E+00 -1.105E-03 .         *  .            .            .            .
  9.700E+00 -1.105E-03 .         *  .            .            .            .
  9.710E+00 -1.105E-03 .         *  .            .            .            .
  9.720E+00 -1.105E-03 .         *  .            .            .            .
  9.730E+00 -1.105E-03 .         *  .            .            .            .
  9.740E+00 -1.105E-03 .         *  .            .            .            .
  9.750E+00 -1.106E-03 .         *  .            .            .            .
  9.760E+00 -1.106E-03 .         *  .            .            .            .
  9.770E+00 -1.106E-03 .         *  .            .            .            .
  9.780E+00 -1.106E-03 .         *  .            .            .            .
  9.790E+00 -1.106E-03 .         *  .            .            .            .
  9.800E+00 -1.107E-03 .         *  .            .            .            .
  9.810E+00 -1.107E-03 .         *  .            .            .            .
  9.820E+00 -1.107E-03 .         *  .            .            .            .
  9.830E+00 -1.107E-03 .         *  .            .            .            .
  9.840E+00 -1.107E-03 .         *  .            .            .            .
  9.850E+00 -1.107E-03 .         *  .            .            .            .
  9.860E+00 -1.108E-03 .         *  .            .            .            .
  9.870E+00 -1.108E-03 .         *  .            .            .            .
  9.880E+00 -1.108E-03 .         *  .            .            .            .
  9.890E+00 -1.108E-03 .         *  .            .            .            .
  9.900E+00 -1.108E-03 .         *  .            .            .            .
  9.910E+00 -1.109E-03 .         *  .            .            .            .
  9.920E+00 -1.109E-03 .         *  .            .            .            .
  9.930E+00 -1.109E-03 .         *  .            .            .            .
  9.940E+00 -1.109E-03 .         *  .            .            .            .
  9.950E+00 -1.109E-03 .         *  .            .            .            .
  9.960E+00 -1.110E-03 .         *  .            .            .            .
  9.970E+00 -1.110E-03 .         *  .            .            .            .
  9.980E+00 -1.110E-03 .         *  .            .            .            .
  9.990E+00 -1.110E-03 .         *  .            .            .            .
  1.000E+01 -1.110E-03 .         *  .            .            .            .
  1.001E+01 -1.110E-03 .         *  .            .            .            .
  1.002E+01 -1.111E-03 .         *  .            .            .            .
  1.003E+01 -1.111E-03 .         *  .            .            .            .
  1.004E+01 -1.111E-03 .         *  .            .            .            .
  1.005E+01 -1.111E-03 .         *  .            .            .            .
  1.006E+01 -1.111E-03 .         *  .            .            .            .
[...]
  1.267E+01 -1.160E-03 .        *   .            .            .            .
  1.268E+01 -1.160E-03 .        *   .            .            .            .
  1.269E+01 -1.160E-03 .        *   .            .            .            .
  1.270E+01 -1.160E-03 .        *   .            .            .            .
  1.271E+01 -1.160E-03 .        *   .            .            .            .
  1.272E+01 -1.161E-03 .        *   .            .            .            .
  1.273E+01 -1.161E-03 .        *   .            .            .            .
  1.274E+01 -1.161E-03 .        *   .            .            .            .
  1.275E+01 -1.161E-03 .        *   .            .            .            .
  1.276E+01 -1.161E-03 .        *   .            .            .            .
  1.277E+01 -1.162E-03 .        *   .            .            .            .
  1.278E+01 -1.162E-03 .        *   .            .            .            .
  1.279E+01 -1.162E-03 .        *   .            .            .            .
  1.280E+01 -1.162E-03 .        *   .            .            .            .
  1.281E+01 -1.162E-03 .        *   .            .            .            .
  1.282E+01 -1.162E-03 .        *   .            .            .            .
  1.283E+01 -1.163E-03 .        *   .            .            .            .
  1.284E+01 -1.163E-03 .        *   .            .            .            .
  1.285E+01 -1.163E-03 .        *   .            .            .            .
  1.286E+01 -1.163E-03 .        *   .            .            .            .
  1.287E+01 -1.163E-03 .        *   .            .            .            .
  1.288E+01 -1.164E-03 .        *   .            .            .            .
  1.289E+01 -1.164E-03 .        *   .            .            .            .
  1.290E+01 -1.164E-03 .        *   .            .            .            .
  1.291E+01 -1.164E-03 .        *   .            .            .            .
  1.292E+01 -1.164E-03 .        *   .            .            .            .
  1.293E+01 -1.164E-03 .        *   .            .            .            .
  1.294E+01 -1.165E-03 .        *   .            .            .            .
  1.295E+01 -1.165E-03 .        *   .            .            .            .
  1.296E+01 -1.165E-03 .        *   .            .            .            .
  1.297E+01 -1.165E-03 .        *   .            .            .            .
  1.298E+01 -1.165E-03 .        *   .            .            .            .
  1.299E+01 -1.166E-03 .        *   .            .            .            .
  1.300E+01 -1.166E-03 .        *   .            .            .            .
  1.301E+01 -1.166E-03 .        *   .            .            .            .
  1.302E+01 -1.166E-03 .        *   .            .            .            .
  1.303E+01 -1.166E-03 .        *   .            .            .            .
  1.304E+01 -1.167E-03 .        *   .            .            .            .
  1.305E+01 -1.167E-03 .        *   .            .            .            .
  1.306E+01 -1.167E-03 .        *   .            .            .            .
  1.307E+01 -1.167E-03 .        *   .            .            .            .
  1.308E+01 -1.167E-03 .        *   .            .            .            .
  1.309E+01 -1.167E-03 .        *   .            .            .            .
  1.310E+01 -1.168E-03 .        *   .            .            .            .
  1.311E+01 -1.168E-03 .        *   .            .            .            .
  1.312E+01 -1.168E-03 .        *   .            .            .            .
  1.313E+01 -1.168E-03 .        *   .            .            .            .
  1.314E+01 -1.168E-03 .        *   .            .            .            .
  1.315E+01 -1.169E-03 .        *   .            .            .            .
  1.316E+01 -1.169E-03 .        *   .            .            .            .
  1.317E+01 -1.169E-03 .        *   .            .            .            .
  1.318E+01 -1.169E-03 .        *   .            .            .            .
  1.319E+01 -1.169E-03 .        *   .            .            .            .
  1.320E+01 -1.169E-03 .        *   .            .            .            .
  1.321E+01 -1.170E-03 .        *   .            .            .            .
  1.322E+01 -1.170E-03 .        *   .            .            .            .
  1.323E+01 -1.170E-03 .        *   .            .            .            .
  1.324E+01 -1.170E-03 .        *   .            .            .            .
  1.325E+01 -1.170E-03 .        *   .            .            .            .
  1.326E+01 -1.171E-03 .        *   .            .            .            .
  1.327E+01 -1.171E-03 .        *   .            .            .            .
  1.328E+01 -1.171E-03 .        *   .            .            .            .
  1.329E+01 -1.171E-03 .        *   .            .            .            .
  1.330E+01 -1.171E-03 .        *   .            .            .            .
  1.331E+01 -1.172E-03 .        *   .            .            .            .
  1.332E+01 -1.172E-03 .        *   .            .            .            .
  1.333E+01 -1.172E-03 .        *   .            .            .            .
  1.334E+01 -1.172E-03 .        *   .            .            .            .
  1.335E+01 -1.172E-03 .        *   .            .            .            .
  1.336E+01 -1.172E-03 .        *   .            .            .            .
  1.337E+01 -1.173E-03 .        *   .            .            .            .
  1.338E+01 -1.173E-03 .        *   .            .            .            .
  1.339E+01 -1.173E-03 .        *   .            .            .            .
  1.340E+01 -1.173E-03 .       *    .            .            .            .
  1.341E+01 -1.173E-03 .       *    .            .            .            .
  1.342E+01 -1.174E-03 .       *    .            .            .            .
  1.343E+01 -1.174E-03 .       *    .            .            .            .
  1.344E+01 -1.174E-03 .       *    .            .            .            .
  1.345E+01 -1.174E-03 .       *    .            .            .            .
  1.346E+01 -1.174E-03 .       *    .            .            .            .
  1.347E+01 -1.174E-03 .       *    .            .            .            .
  1.348E+01 -1.175E-03 .       *    .            .            .            .
  1.349E+01 -1.175E-03 .       *    .            .            .            .
  1.350E+01 -1.175E-03 .       *    .            .            .            .
  1.351E+01 -1.175E-03 .       *    .            .            .            .
  1.352E+01 -1.175E-03 .       *    .            .            .            .
  1.353E+01 -1.176E-03 .       *    .            .            .            .
  1.354E+01 -1.176E-03 .       *    .            .            .            .
  1.355E+01 -1.176E-03 .       *    .            .            .            .
  1.356E+01 -1.176E-03 .       *    .            .            .            .
  1.357E+01 -1.176E-03 .       *    .            .            .            .
  1.358E+01 -1.177E-03 .       *    .            .            .            .
  1.359E+01 -1.177E-03 .       *    .            .            .            .
  1.360E+01 -1.177E-03 .       *    .            .            .            .
  1.361E+01 -1.177E-03 .       *    .            .            .            .
  1.362E+01 -1.177E-03 .       *    .            .            .            .
  1.363E+01 -1.177E-03 .       *    .            .            .            .
  1.364E+01 -1.178E-03 .       *    .            .            .            .
  1.365E+01 -1.178E-03 .       *    .            .            .            .
  1.366E+01 -1.178E-03 .       *    .            .            .            .
  1.367E+01 -1.178E-03 .       *    .            .            .            .
  1.368E+01 -1.178E-03 .       *    .            .            .            .
  1.369E+01 -1.179E-03 .       *    .            .            .            .
  1.370E+01 -1.179E-03 .       *    .            .            .            .
  1.371E+01 -1.179E-03 .       *    .            .            .            .
  1.372E+01 -1.179E-03 .       *    .            .            .            .
  1.373E+01 -1.179E-03 .       *    .            .            .            .
  1.374E+01 -1.179E-03 .       *    .            .            .            .
  1.375E+01 -1.180E-03 .       *    .            .            .            .
  1.376E+01 -1.180E-03 .       *    .            .            .            .
  1.377E+01 -1.180E-03 .       *    .            .            .            .
  1.378E+01 -1.180E-03 .       *    .            .            .            .
  1.379E+01 -1.180E-03 .       *    .            .            .            .
  1.380E+01 -1.181E-03 .       *    .            .            .            .
  1.381E+01 -1.181E-03 .       *    .            .            .            .
  1.382E+01 -1.181E-03 .       *    .            .            .            .
  1.383E+01 -1.181E-03 .       *    .            .            .            .
  1.384E+01 -1.181E-03 .       *    .            .            .            .
  1.385E+01 -1.182E-03 .       *    .            .            .            .
  1.386E+01 -1.182E-03 .       *    .            .            .            .
  1.387E+01 -1.182E-03 .       *    .            .            .            .
  1.388E+01 -1.182E-03 .       *    .            .            .            .
  1.389E+01 -1.182E-03 .       *    .            .            .            .
  1.390E+01 -1.182E-03 .       *    .            .            .            .
  1.391E+01 -1.183E-03 .       *    .            .            .            .
  1.392E+01 -1.183E-03 .       *    .            .            .            .
  1.393E+01 -1.183E-03 .       *    .            .            .            .
  1.394E+01 -1.183E-03 .       *    .            .            .            .
  1.395E+01 -1.183E-03 .       *    .            .            .            .
  1.396E+01 -1.184E-03 .       *    .            .            .            .
  1.397E+01 -1.184E-03 .       *    .            .            .            .
  1.398E+01 -1.184E-03 .       *    .            .            .            .
  1.399E+01 -1.184E-03 .       *    .            .            .            .
  1.400E+01 -1.184E-03 .       *    .            .            .            .
  1.401E+01 -1.184E-03 .       *    .            .            .            .
  1.402E+01 -1.185E-03 .       *    .            .            .            .
  1.403E+01 -1.185E-03 .       *    .            .            .            .
  1.404E+01 -1.185E-03 .       *    .            .            .            .
  1.405E+01 -1.185E-03 .       *    .            .            .            .
  1.406E+01 -1.185E-03 .       *    .            .            .            .
  1.407E+01 -1.186E-03 .       *    .            .            .            .
  1.408E+01 -1.186E-03 .       *    .            .            .            .
  1.409E+01 -1.186E-03 .       *    .            .            .            .
  1.410E+01 -1.186E-03 .       *    .            .            .            .
  1.411E+01 -1.186E-03 .       *    .            .            .            .
  1.412E+01 -1.186E-03 .       *    .            .            .            .
  1.413E+01 -1.187E-03 .       *    .            .            .            .
  1.414E+01 -1.187E-03 .       *    .            .            .            .
  1.415E+01 -1.187E-03 .       *    .            .            .            .
  1.416E+01 -1.187E-03 .       *    .            .            .            .
  1.417E+01 -1.187E-03 .       *    .            .            .            .
  1.418E+01 -1.188E-03 .       *    .            .            .            .
  1.419E+01 -1.188E-03 .       *    .            .            .            .
  1.420E+01 -1.188E-03 .       *    .            .            .            .
  1.421E+01 -1.188E-03 .       *    .            .            .            .
  1.422E+01 -1.188E-03 .       *    .            .            .            .
  1.423E+01 -1.189E-03 .       *    .            .            .            .
  1.424E+01 -1.189E-03 .       *    .            .            .            .
  1.425E+01 -1.189E-03 .       *    .            .            .            .
  1.426E+01 -1.189E-03 .       *    .            .            .            .
  1.427E+01 -1.189E-03 .       *    .            .            .            .
  1.428E+01 -1.189E-03 .       *    .            .            .            .
  1.429E+01 -1.190E-03 .       *    .            .            .            .
  1.430E+01 -1.190E-03 .       *    .            .            .            .
  1.431E+01 -1.190E-03 .       *    .            .            .            .
  1.432E+01 -1.190E-03 .       *    .            .            .            .
  1.433E+01 -1.190E-03 .       *    .            .            .            .
  1.434E+01 -1.191E-03 .       *    .            .            .            .
  1.435E+01 -1.191E-03 .       *    .            .            .            .
  1.436E+01 -1.191E-03 .       *    .            .            .            .
  1.437E+01 -1.191E-03 .       *    .            .            .            .
  1.438E+01 -1.191E-03 .       *    .            .            .            .
  1.439E+01 -1.191E-03 .       *    .            .            .            .
  1.440E+01 -1.192E-03 .       *    .            .            .            .
  1.441E+01 -1.192E-03 .       *    .            .            .            .
  1.442E+01 -1.192E-03 .       *    .            .            .            .
  1.443E+01 -1.192E-03 .       *    .            .            .            .
  1.444E+01 -1.192E-03 .       *    .            .            .            .
  1.445E+01 -1.193E-03 .       *    .            .            .            .
  1.446E+01 -1.193E-03 .       *    .            .            .            .
  1.447E+01 -1.193E-03 .       *    .            .            .            .
  1.448E+01 -1.193E-03 .       *    .            .            .            .
  1.449E+01 -1.193E-03 .       *    .            .            .            .
  1.450E+01 -1.194E-03 .       *    .            .            .            .
  1.451E+01 -1.194E-03 .       *    .            .            .            .
  1.452E+01 -1.194E-03 .       *    .            .            .            .
  1.453E+01 -1.194E-03 .       *    .            .            .            .
  1.454E+01 -1.194E-03 .       *    .            .            .            .
  1.455E+01 -1.194E-03 .       *    .            .            .            .
  1.456E+01 -1.195E-03 .       *    .            .            .            .
  1.457E+01 -1.195E-03 .       *    .            .            .            .
  1.458E+01 -1.195E-03 .       *    .            .            .            .
  1.459E+01 -1.195E-03 .       *    .            .            .            .
  1.460E+01 -1.195E-03 .       *    .            .            .            .
  1.461E+01 -1.196E-03 .       *    .            .            .            .
  1.462E+01 -1.196E-03 .       *    .            .            .            .
  1.463E+01 -1.196E-03 .       *    .            .            .            .
  1.464E+01 -1.196E-03 .       *    .            .            .            .
  1.465E+01 -1.196E-03 .       *    .            .            .            .
  1.466E+01 -1.196E-03 .       *    .            .            .            .
  1.467E+01 -1.197E-03 .       *    .            .            .            .
  1.468E+01 -1.197E-03 .       *    .            .            .            .
  1.469E+01 -1.197E-03 .       *    .            .            .            .
  1.470E+01 -1.197E-03 .       *    .            .            .            .
  1.471E+01 -1.197E-03 .       *    .            .            .            .
  1.472E+01 -1.198E-03 .       *    .            .            .            .
  1.473E+01 -1.198E-03 .       *    .            .            .            .
  1.474E+01 -1.198E-03 .       *    .            .            .            .
  1.475E+01 -1.198E-03 .       *    .            .            .            .
  1.476E+01 -1.198E-03 .       *    .            .            .            .
  1.477E+01 -1.199E-03 .       *    .            .            .            .
  1.478E+01 -1.199E-03 .       *    .            .            .            .
  1.479E+01 -1.199E-03 .       *    .            .            .            .
  1.480E+01 -1.199E-03 .       *    .            .            .            .
  1.481E+01 -1.199E-03 .       *    .            .            .            .
  1.482E+01 -1.199E-03 .       *    .            .            .            .
  1.483E+01 -1.200E-03 .       *    .            .            .            .
  1.484E+01 -1.200E-03 .       *    .            .            .            .
  1.485E+01 -1.200E-03 .       *    .            .            .            .
  1.486E+01 -1.200E-03 .       *    .            .            .            .
  1.487E+01 -1.200E-03 .       *    .            .            .            .
  1.488E+01 -1.201E-03 .       *    .            .            .            .
  1.489E+01 -1.201E-03 .       *    .            .            .            .
  1.490E+01 -1.201E-03 .       *    .            .            .            .
  1.491E+01 -1.201E-03 .       *    .            .            .            .
  1.492E+01 -1.201E-03 .       *    .            .            .            .
  1.493E+01 -1.201E-03 .       *    .            .            .            .
  1.494E+01 -1.202E-03 .       *    .            .            .            .
  1.495E+01 -1.202E-03 .       *    .            .            .            .
  1.496E+01 -1.202E-03 .       *    .            .            .            .
  1.497E+01 -1.202E-03 .       *    .            .            .            .
  1.498E+01 -1.202E-03 .       *    .            .            .            .
  1.499E+01 -1.203E-03 .       *    .            .            .            .
  1.500E+01 -1.203E-03 .       *    .            .            .            .
                       - - - - - - - - - - - - - - - - - - - - - - - - - - - 



**** 03/29/22 14:46:33 ******* PSpice Lite (March 2016) ******* ID# 10813 ****

  


 ****     SMALL SIGNAL BIAS SOLUTION       TEMPERATURE =   27.000 DEG C


******************************************************************************



 NODE   VOLTAGE     NODE   VOLTAGE     NODE   VOLTAGE     NODE   VOLTAGE


(    1)   15.0000  (    2)    4.0417  (    3)    8.0000  




    VOLTAGE SOURCE CURRENTS
    NAME         CURRENT

    vdd         -1.000E-03
    vo          -1.073E-03

    TOTAL POWER DISSIPATION   2.36E-02  WATTS


**** 03/29/22 14:46:33 ******* PSpice Lite (March 2016) ******* ID# 10813 ****

  


 ****     OPERATING POINT INFORMATION      TEMPERATURE =   27.000 DEG C


******************************************************************************






**** MOSFETS


NAME         m1          m2        
MODEL        aaa         bbb       
ID           1.00E-03    1.07E-03 
VGS          4.04E+00    4.04E+00 
VDS          4.04E+00    8.00E+00 
VBS          0.00E+00    0.00E+00 
VTH          1.00E+00    1.00E+00 
VDSAT        3.04E+00    3.04E+00 
Lin0/Sat1   -1.00E+00   -1.00E+00 
if          -1.00E+00   -1.00E+00 
ir          -1.00E+00   -1.00E+00 
TAU         -1.00E+00   -1.00E+00 
GM           6.58E-04    7.06E-04 
GDS          1.85E-05    1.85E-05 
GMB          0.00E+00    0.00E+00 
CBD          0.00E+00    0.00E+00 
CBS          0.00E+00    0.00E+00 
CGSOV        0.00E+00    0.00E+00 
CGDOV        0.00E+00    0.00E+00 
CGBOV        0.00E+00    0.00E+00 
CGS          0.00E+00    0.00E+00 
CGD          0.00E+00    0.00E+00 
CGB          0.00E+00    0.00E+00 

          JOB CONCLUDED

**** 03/29/22 14:46:33 ******* PSpice Lite (March 2016) ******* ID# 10813 ****

  


 ****     JOB STATISTICS SUMMARY


******************************************************************************



  Total job time (using Solver 1)   =         .08
