
**** 03/22/22 13:51:10 ******* PSpice Lite (March 2016) ******* ID# 10813 ****

  


 ****     CIRCUIT DESCRIPTION


******************************************************************************



vcc 1 0 dc 15v
vo 1 2 dc 3v
r1 1 2 14.3k
q1 2 2 0 0 aaa
q2 3 2 0 0 aaa
.model aaa npn(is=1.8e-15 bf=100 vaf=100)
.op
.dc vo 0v 15v 10mv
.plot dc i(vo)
.probe
.end 

ERROR(ORPSIM-15141): Less than 2 connections at node 3.
