
**** 03/29/22 15:11:54 ******* PSpice Lite (March 2016) ******* ID# 10813 ****

  


 ****     CIRCUIT DESCRIPTION


******************************************************************************



vdd 1 0 dc 15v
r1 1 2 5k
iref 1 2 dc 1m
m1 2 2 0 0 aaa l=10u w=100u 
.model aaa nmos(kp=20u vto=1 lambda=0.02)
vo 3 0 dc 8v
m2 3 2 0 0 bbb l=10u w=100u 
.model bbb nmos(kp=20u vto=1 lambda=0.02)
.op
.dc vo 0 15 0.01
.plot dc i(vo)
.probe
.end

**** 03/29/22 15:11:54 ******* PSpice Lite (March 2016) ******* ID# 10813 ****

  


 ****     MOSFET MODEL PARAMETERS


******************************************************************************




               aaa             bbb             
               NMOS            NMOS            
       LEVEL    1               1            
           L  100.000000E-06  100.000000E-06 
           W  100.000000E-06  100.000000E-06 
         VTO    1               1            
          KP   20.000000E-06   20.000000E-06 
       GAMMA    0               0            
         PHI     .6              .6          
      LAMBDA     .02             .02         
          IS   10.000000E-15   10.000000E-15 
          JS    0               0            
          PB     .8              .8          
        PBSW     .8              .8          
          CJ    0               0            
        CJSW    0               0            
        CGSO    0               0            
        CGDO    0               0            
        CGBO    0               0            
         TOX    0               0            
          XJ    0               0            
       UCRIT   10.000000E+03   10.000000E+03 
      DIOMOD    1               1            
         VFB    0               0            
        LETA    0               0            
        WETA    0               0            
          U0    0               0            
        TEMP    0               0            
         VDD    5               5            
       XPART    0               0            


**** 03/29/22 15:11:54 ******* PSpice Lite (March 2016) ******* ID# 10813 ****

  


 ****     DC TRANSFER CURVES               TEMPERATURE =   27.000 DEG C


******************************************************************************



  vo          I(vo)       
(*)----------   -4.0000E-03  -3.0000E-03  -2.0000E-03  -1.0000E-03   0.0000E+00
                       _ _ _ _ _ _ _ _ _ _ _ _ _ _ _ _ _ _ _ _ _ _ _ _ _ _ _
  0.000E+00  0.000E+00 .            .            .            .            *
  1.000E-02 -9.992E-06 .            .            .            .            *
  2.000E-02 -1.997E-05 .            .            .            .            *
  3.000E-02 -2.993E-05 .            .            .            .            *
  4.000E-02 -3.987E-05 .            .            .            .           *.
  5.000E-02 -4.980E-05 .            .            .            .           *.
  6.000E-02 -5.971E-05 .            .            .            .           *.
  7.000E-02 -6.961E-05 .            .            .            .           *.
  8.000E-02 -7.949E-05 .            .            .            .           *.
  9.000E-02 -8.935E-05 .            .            .            .           *.
  1.000E-01 -9.920E-05 .            .            .            .           *.
  1.100E-01 -1.090E-04 .            .            .            .           *.
  1.200E-01 -1.188E-04 .            .            .            .          * .
  1.300E-01 -1.286E-04 .            .            .            .          * .
  1.400E-01 -1.384E-04 .            .            .            .          * .
  1.500E-01 -1.482E-04 .            .            .            .          * .
  1.600E-01 -1.579E-04 .            .            .            .          * .
  1.700E-01 -1.677E-04 .            .            .            .          * .
  1.800E-01 -1.774E-04 .            .            .            .          * .
  1.900E-01 -1.871E-04 .            .            .            .          * .
  2.000E-01 -1.968E-04 .            .            .            .         *  .
  2.100E-01 -2.065E-04 .            .            .            .         *  .
  2.200E-01 -2.161E-04 .            .            .            .         *  .
  2.300E-01 -2.257E-04 .            .            .            .         *  .
  2.400E-01 -2.354E-04 .            .            .            .         *  .
  2.500E-01 -2.450E-04 .            .            .            .         *  .
  2.600E-01 -2.546E-04 .            .            .            .         *  .
  2.700E-01 -2.641E-04 .            .            .            .         *  .
  2.800E-01 -2.737E-04 .            .            .            .        *   .
  2.900E-01 -2.832E-04 .            .            .            .        *   .
  3.000E-01 -2.927E-04 .            .            .            .        *   .
  3.100E-01 -3.023E-04 .            .            .            .        *   .
  3.200E-01 -3.117E-04 .            .            .            .        *   .
  3.300E-01 -3.212E-04 .            .            .            .        *   .
  3.400E-01 -3.307E-04 .            .            .            .        *   .
  3.500E-01 -3.401E-04 .            .            .            .        *   .
  3.600E-01 -3.495E-04 .            .            .            .       *    .
  3.700E-01 -3.589E-04 .            .            .            .       *    .
  3.800E-01 -3.683E-04 .            .            .            .       *    .
  3.900E-01 -3.777E-04 .            .            .            .       *    .
  4.000E-01 -3.871E-04 .            .            .            .       *    .
  4.100E-01 -3.964E-04 .            .            .            .       *    .
  4.200E-01 -4.057E-04 .            .            .            .       *    .
  4.300E-01 -4.150E-04 .            .            .            .       *    .
  4.400E-01 -4.243E-04 .            .            .            .      *     .
  4.500E-01 -4.336E-04 .            .            .            .      *     .
  4.600E-01 -4.429E-04 .            .            .            .      *     .
  4.700E-01 -4.521E-04 .            .            .            .      *     .
  4.800E-01 -4.613E-04 .            .            .            .      *     .
  4.900E-01 -4.706E-04 .            .            .            .      *     .
  5.000E-01 -4.798E-04 .            .            .            .      *     .
  5.100E-01 -4.889E-04 .            .            .            .      *     .
  5.200E-01 -4.981E-04 .            .            .            .      *     .
  5.300E-01 -5.072E-04 .            .            .            .     *      .
  5.400E-01 -5.164E-04 .            .            .            .     *      .
  5.500E-01 -5.255E-04 .            .            .            .     *      .
  5.600E-01 -5.346E-04 .            .            .            .     *      .
  5.700E-01 -5.436E-04 .            .            .            .     *      .
  5.800E-01 -5.527E-04 .            .            .            .     *      .
  5.900E-01 -5.617E-04 .            .            .            .     *      .
  6.000E-01 -5.708E-04 .            .            .            .     *      .
  6.100E-01 -5.798E-04 .            .            .            .    *       .
  6.200E-01 -5.888E-04 .            .            .            .    *       .
  6.300E-01 -5.977E-04 .            .            .            .    *       .
  6.400E-01 -6.067E-04 .            .            .            .    *       .
  6.500E-01 -6.157E-04 .            .            .            .    *       .
  6.600E-01 -6.246E-04 .            .            .            .    *       .
  6.700E-01 -6.335E-04 .            .            .            .    *       .
  6.800E-01 -6.424E-04 .            .            .            .    *       .
  6.900E-01 -6.513E-04 .            .            .            .    *       .
  7.000E-01 -6.601E-04 .            .            .            .   *        .
  7.100E-01 -6.690E-04 .            .            .            .   *        .
  7.200E-01 -6.778E-04 .            .            .            .   *        .
  7.300E-01 -6.866E-04 .            .            .            .   *        .
  7.400E-01 -6.954E-04 .            .            .            .   *        .
  7.500E-01 -7.042E-04 .            .            .            .   *        .
  7.600E-01 -7.129E-04 .            .            .            .   *        .
  7.700E-01 -7.217E-04 .            .            .            .   *        .
  7.800E-01 -7.304E-04 .            .            .            .   *        .
  7.900E-01 -7.391E-04 .            .            .            .  *         .
  8.000E-01 -7.478E-04 .            .            .            .  *         .
  8.100E-01 -7.564E-04 .            .            .            .  *         .
  8.200E-01 -7.651E-04 .            .            .            .  *         .
  8.300E-01 -7.737E-04 .            .            .            .  *         .
  8.400E-01 -7.824E-04 .            .            .            .  *         .
  8.500E-01 -7.910E-04 .            .            .            .  *         .
  8.600E-01 -7.996E-04 .            .            .            .  *         .
  8.700E-01 -8.081E-04 .            .            .            . *          .
  8.800E-01 -8.167E-04 .            .            .            . *          .
  8.900E-01 -8.252E-04 .            .            .            . *          .
  9.000E-01 -8.337E-04 .            .            .            . *          .
  9.100E-01 -8.422E-04 .            .            .            . *          .
  9.200E-01 -8.507E-04 .            .            .            . *          .
  9.300E-01 -8.592E-04 .            .            .            . *          .
  9.400E-01 -8.677E-04 .            .            .            . *          .
  9.500E-01 -8.761E-04 .            .            .            . *          .
  9.600E-01 -8.845E-04 .            .            .            . *          .
  9.700E-01 -8.929E-04 .            .            .            .*           .
  9.800E-01 -9.013E-04 .            .            .            .*           .
  9.900E-01 -9.097E-04 .            .            .            .*           .
  1.000E+00 -9.180E-04 .            .            .            .*           .
  1.010E+00 -9.263E-04 .            .            .            .*           .
  1.020E+00 -9.346E-04 .            .            .            .*           .
  1.030E+00 -9.429E-04 .            .            .            .*           .
  1.040E+00 -9.512E-04 .            .            .            .*           .
  1.050E+00 -9.595E-04 .            .            .            .*           .
  1.060E+00 -9.677E-04 .            .            .            *            .
  1.070E+00 -9.760E-04 .            .            .            *            .
  1.080E+00 -9.842E-04 .            .            .            *            .
  1.090E+00 -9.924E-04 .            .            .            *            .
  1.100E+00 -1.001E-03 .            .            .            *            .
  1.110E+00 -1.009E-03 .            .            .            *            .
  1.120E+00 -1.017E-03 .            .            .            *            .
  1.130E+00 -1.025E-03 .            .            .            *            .
  1.140E+00 -1.033E-03 .            .            .            *            .
  1.150E+00 -1.041E-03 .            .            .           *.            .
  1.160E+00 -1.049E-03 .            .            .           *.            .
  1.170E+00 -1.057E-03 .            .            .           *.            .
  1.180E+00 -1.065E-03 .            .            .           *.            .
  1.190E+00 -1.073E-03 .            .            .           *.            .
  1.200E+00 -1.081E-03 .            .            .           *.            .
  1.210E+00 -1.089E-03 .            .            .           *.            .
  1.220E+00 -1.097E-03 .            .            .           *.            .
  1.230E+00 -1.105E-03 .            .            .           *.            .
  1.240E+00 -1.113E-03 .            .            .           *.            .
  1.250E+00 -1.121E-03 .            .            .          * .            .
  1.260E+00 -1.129E-03 .            .            .          * .            .
  1.270E+00 -1.137E-03 .            .            .          * .            .
  1.280E+00 -1.145E-03 .            .            .          * .            .
  1.290E+00 -1.153E-03 .            .            .          * .            .
  1.300E+00 -1.160E-03 .            .            .          * .            .
  1.310E+00 -1.168E-03 .            .            .          * .            .
  1.320E+00 -1.176E-03 .            .            .          * .            .
  1.330E+00 -1.184E-03 .            .            .          * .            .
  1.340E+00 -1.192E-03 .            .            .          * .            .
  1.350E+00 -1.199E-03 .            .            .         *  .            .
  1.360E+00 -1.207E-03 .            .            .         *  .            .
  1.370E+00 -1.215E-03 .            .            .         *  .            .
  1.380E+00 -1.222E-03 .            .            .         *  .            .
  1.390E+00 -1.230E-03 .            .            .         *  .            .
  1.400E+00 -1.238E-03 .            .            .         *  .            .
  1.410E+00 -1.245E-03 .            .            .         *  .            .
  1.420E+00 -1.253E-03 .            .            .         *  .            .
  1.430E+00 -1.261E-03 .            .            .         *  .            .
  1.440E+00 -1.268E-03 .            .            .         *  .            .
  1.450E+00 -1.276E-03 .            .            .        *   .            .
  1.460E+00 -1.283E-03 .            .            .        *   .            .
  1.470E+00 -1.291E-03 .            .            .        *   .            .
  1.480E+00 -1.298E-03 .            .            .        *   .            .
  1.490E+00 -1.306E-03 .            .            .        *   .            .
  1.500E+00 -1.313E-03 .            .            .        *   .            .
  1.510E+00 -1.321E-03 .            .            .        *   .            .
  1.520E+00 -1.328E-03 .            .            .        *   .            .
  1.530E+00 -1.336E-03 .            .            .        *   .            .
  1.540E+00 -1.343E-03 .            .            .        *   .            .
  1.550E+00 -1.350E-03 .            .            .       *    .            .
  1.560E+00 -1.358E-03 .            .            .       *    .            .
  1.570E+00 -1.365E-03 .            .            .       *    .            .
  1.580E+00 -1.372E-03 .            .            .       *    .            .
  1.590E+00 -1.380E-03 .            .            .       *    .            .
  1.600E+00 -1.387E-03 .            .            .       *    .            .
  1.610E+00 -1.394E-03 .            .            .       *    .            .
  1.620E+00 -1.402E-03 .            .            .       *    .            .
  1.630E+00 -1.409E-03 .            .            .       *    .            .
  1.640E+00 -1.416E-03 .            .            .       *    .            .
  1.650E+00 -1.423E-03 .            .            .      *     .            .
  1.660E+00 -1.430E-03 .            .            .      *     .            .
  1.670E+00 -1.438E-03 .            .            .      *     .            .
  1.680E+00 -1.445E-03 .            .            .      *     .            .
  1.690E+00 -1.452E-03 .            .            .      *     .            .
  1.700E+00 -1.459E-03 .            .            .      *     .            .
  1.710E+00 -1.466E-03 .            .            .      *     .            .
  1.720E+00 -1.473E-03 .            .            .      *     .            .
  1.730E+00 -1.480E-03 .            .            .      *     .            .
  1.740E+00 -1.487E-03 .            .            .      *     .            .
  1.750E+00 -1.494E-03 .            .            .      *     .            .
  1.760E+00 -1.501E-03 .            .            .     *      .            .
  1.770E+00 -1.508E-03 .            .            .     *      .            .
  1.780E+00 -1.515E-03 .            .            .     *      .            .
  1.790E+00 -1.522E-03 .            .            .     *      .            .
  1.800E+00 -1.529E-03 .            .            .     *      .            .
  1.810E+00 -1.536E-03 .            .            .     *      .            .
  1.820E+00 -1.543E-03 .            .            .     *      .            .
  1.830E+00 -1.550E-03 .            .            .     *      .            .
  1.840E+00 -1.557E-03 .            .            .     *      .            .
  1.850E+00 -1.564E-03 .            .            .     *      .            .
  1.860E+00 -1.570E-03 .            .            .     *      .            .
  1.870E+00 -1.577E-03 .            .            .    *       .            .
  1.880E+00 -1.584E-03 .            .            .    *       .            .
  1.890E+00 -1.591E-03 .            .            .    *       .            .
  1.900E+00 -1.597E-03 .            .            .    *       .            .
  1.910E+00 -1.604E-03 .            .            .    *       .            .
  1.920E+00 -1.611E-03 .            .            .    *       .            .
  1.930E+00 -1.618E-03 .            .            .    *       .            .
  1.940E+00 -1.624E-03 .            .            .    *       .            .
  1.950E+00 -1.631E-03 .            .            .    *       .            .
  1.960E+00 -1.638E-03 .            .            .    *       .            .
  1.970E+00 -1.644E-03 .            .            .    *       .            .
  1.980E+00 -1.651E-03 .            .            .    *       .            .
  1.990E+00 -1.657E-03 .            .            .   *        .            .
  2.000E+00 -1.664E-03 .            .            .   *        .            .
  2.010E+00 -1.671E-03 .            .            .   *        .            .
  2.020E+00 -1.677E-03 .            .            .   *        .            .
  2.030E+00 -1.684E-03 .            .            .   *        .            .
  2.040E+00 -1.690E-03 .            .            .   *        .            .
  2.050E+00 -1.697E-03 .            .            .   *        .            .
  2.060E+00 -1.703E-03 .            .            .   *        .            .
  2.070E+00 -1.709E-03 .            .            .   *        .            .
  2.080E+00 -1.716E-03 .            .            .   *        .            .
  2.090E+00 -1.722E-03 .            .            .   *        .            .
  2.100E+00 -1.729E-03 .            .            .   *        .            .
  2.110E+00 -1.735E-03 .            .            .  *         .            .
  2.120E+00 -1.741E-03 .            .            .  *         .            .
  2.130E+00 -1.748E-03 .            .            .  *         .            .
  2.140E+00 -1.754E-03 .            .            .  *         .            .
  2.150E+00 -1.760E-03 .            .            .  *         .            .
  2.160E+00 -1.767E-03 .            .            .  *         .            .
  2.170E+00 -1.773E-03 .            .            .  *         .            .
  2.180E+00 -1.779E-03 .            .            .  *         .            .
  2.190E+00 -1.785E-03 .            .            .  *         .            .
  2.200E+00 -1.792E-03 .            .            .  *         .            .
  2.210E+00 -1.798E-03 .            .            .  *         .            .
  2.220E+00 -1.804E-03 .            .            .  *         .            .
  2.230E+00 -1.810E-03 .            .            . *          .            .
  2.240E+00 -1.816E-03 .            .            . *          .            .
  2.250E+00 -1.822E-03 .            .            . *          .            .
  2.260E+00 -1.828E-03 .            .            . *          .            .
  2.270E+00 -1.834E-03 .            .            . *          .            .
  2.280E+00 -1.840E-03 .            .            . *          .            .
  2.290E+00 -1.846E-03 .            .            . *          .            .
  2.300E+00 -1.852E-03 .            .            . *          .            .
  2.310E+00 -1.858E-03 .            .            . *          .            .
  2.320E+00 -1.864E-03 .            .            . *          .            .
  2.330E+00 -1.870E-03 .            .            . *          .            .
  2.340E+00 -1.876E-03 .            .            . *          .            .
  2.350E+00 -1.882E-03 .            .            . *          .            .
  2.360E+00 -1.888E-03 .            .            .*           .            .
  2.370E+00 -1.894E-03 .            .            .*           .            .
  2.380E+00 -1.900E-03 .            .            .*           .            .
  2.390E+00 -1.906E-03 .            .            .*           .            .
  2.400E+00 -1.912E-03 .            .            .*           .            .
  2.410E+00 -1.917E-03 .            .            .*           .            .
  2.420E+00 -1.923E-03 .            .            .*           .            .
  2.430E+00 -1.929E-03 .            .            .*           .            .
  2.440E+00 -1.935E-03 .            .            .*           .            .
  2.450E+00 -1.940E-03 .            .            .*           .            .
  2.460E+00 -1.946E-03 .            .            .*           .            .
  2.470E+00 -1.952E-03 .            .            .*           .            .
  2.480E+00 -1.957E-03 .            .            .*           .            .
  2.490E+00 -1.963E-03 .            .            *            .            .
  2.500E+00 -1.969E-03 .            .            *            .            .
  2.510E+00 -1.974E-03 .            .            *            .            .
  2.520E+00 -1.980E-03 .            .            *            .            .
  2.530E+00 -1.986E-03 .            .            *            .            .
  2.540E+00 -1.991E-03 .            .            *            .            .
  2.550E+00 -1.997E-03 .            .            *            .            .
  2.560E+00 -2.002E-03 .            .            *            .            .
  2.570E+00 -2.008E-03 .            .            *            .            .
  2.580E+00 -2.013E-03 .            .            *            .            .
  2.590E+00 -2.019E-03 .            .            *            .            .
  2.600E+00 -2.024E-03 .            .            *            .            .
  2.610E+00 -2.029E-03 .            .            *            .            .
  2.620E+00 -2.035E-03 .            .            *            .            .
  2.630E+00 -2.040E-03 .            .           *.            .            .
  2.640E+00 -2.046E-03 .            .           *.            .            .
  2.650E+00 -2.051E-03 .            .           *.            .            .
  2.660E+00 -2.056E-03 .            .           *.            .            .
  2.670E+00 -2.062E-03 .            .           *.            .            .
  2.680E+00 -2.067E-03 .            .           *.            .            .
  2.690E+00 -2.072E-03 .            .           *.            .            .
  2.700E+00 -2.077E-03 .            .           *.            .            .
  2.710E+00 -2.083E-03 .            .           *.            .            .
  2.720E+00 -2.088E-03 .            .           *.            .            .
  2.730E+00 -2.093E-03 .            .           *.            .            .
  2.740E+00 -2.098E-03 .            .           *.            .            .
  2.750E+00 -2.103E-03 .            .           *.            .            .
  2.760E+00 -2.109E-03 .            .           *.            .            .
  2.770E+00 -2.114E-03 .            .           *.            .            .
  2.780E+00 -2.119E-03 .            .          * .            .            .
  2.790E+00 -2.124E-03 .            .          * .            .            .
  2.800E+00 -2.129E-03 .            .          * .            .            .
  2.810E+00 -2.134E-03 .            .          * .            .            .
  2.820E+00 -2.139E-03 .            .          * .            .            .
  2.830E+00 -2.144E-03 .            .          * .            .            .
  2.840E+00 -2.149E-03 .            .          * .            .            .
  2.850E+00 -2.154E-03 .            .          * .            .            .
  2.860E+00 -2.159E-03 .            .          * .            .            .
  2.870E+00 -2.164E-03 .            .          * .            .            .
  2.880E+00 -2.169E-03 .            .          * .            .            .
  2.890E+00 -2.174E-03 .            .          * .            .            .
  2.900E+00 -2.178E-03 .            .          * .            .            .
  2.910E+00 -2.183E-03 .            .          * .            .            .
  2.920E+00 -2.188E-03 .            .          * .            .            .
  2.930E+00 -2.193E-03 .            .         *  .            .            .
  2.940E+00 -2.198E-03 .            .         *  .            .            .
  2.950E+00 -2.202E-03 .            .         *  .            .            .
  2.960E+00 -2.207E-03 .            .         *  .            .            .
  2.970E+00 -2.212E-03 .            .         *  .            .            .
  2.980E+00 -2.217E-03 .            .         *  .            .            .
  2.990E+00 -2.221E-03 .            .         *  .            .            .
  3.000E+00 -2.226E-03 .            .         *  .            .            .
  3.010E+00 -2.231E-03 .            .         *  .            .            .
  3.020E+00 -2.235E-03 .            .         *  .            .            .
  3.030E+00 -2.240E-03 .            .         *  .            .            .
  3.040E+00 -2.244E-03 .            .         *  .            .            .
  3.050E+00 -2.249E-03 .            .         *  .            .            .
  3.060E+00 -2.254E-03 .            .         *  .            .            .
  3.070E+00 -2.258E-03 .            .         *  .            .            .
  3.080E+00 -2.263E-03 .            .         *  .            .            .
  3.090E+00 -2.267E-03 .            .         *  .            .            .
  3.100E+00 -2.272E-03 .            .        *   .            .            .
  3.110E+00 -2.276E-03 .            .        *   .            .            .
  3.120E+00 -2.281E-03 .            .        *   .            .            .
  3.130E+00 -2.285E-03 .            .        *   .            .            .
  3.140E+00 -2.289E-03 .            .        *   .            .            .
  3.150E+00 -2.294E-03 .            .        *   .            .            .
  3.160E+00 -2.298E-03 .            .        *   .            .            .
  3.170E+00 -2.302E-03 .            .        *   .            .            .
  3.180E+00 -2.307E-03 .            .        *   .            .            .
  3.190E+00 -2.311E-03 .            .        *   .            .            .
  3.200E+00 -2.315E-03 .            .        *   .            .            .
  3.210E+00 -2.320E-03 .            .        *   .            .            .
  3.220E+00 -2.324E-03 .            .        *   .            .            .
  3.230E+00 -2.328E-03 .            .        *   .            .            .
  3.240E+00 -2.332E-03 .            .        *   .            .            .
  3.250E+00 -2.336E-03 .            .        *   .            .            .
  3.260E+00 -2.341E-03 .            .        *   .            .            .
  3.270E+00 -2.345E-03 .            .        *   .            .            .
  3.280E+00 -2.349E-03 .            .       *    .            .            .
  3.290E+00 -2.353E-03 .            .       *    .            .            .
  3.300E+00 -2.357E-03 .            .       *    .            .            .
  3.310E+00 -2.361E-03 .            .       *    .            .            .
  3.320E+00 -2.365E-03 .            .       *    .            .            .
  3.330E+00 -2.369E-03 .            .       *    .            .            .
  3.340E+00 -2.373E-03 .            .       *    .            .            .
  3.350E+00 -2.377E-03 .            .       *    .            .            .
  3.360E+00 -2.381E-03 .            .       *    .            .            .
  3.370E+00 -2.385E-03 .            .       *    .            .            .
  3.380E+00 -2.389E-03 .            .       *    .            .            .
  3.390E+00 -2.393E-03 .            .       *    .            .            .
  3.400E+00 -2.397E-03 .            .       *    .            .            .
  3.410E+00 -2.400E-03 .            .       *    .            .            .
  3.420E+00 -2.404E-03 .            .       *    .            .            .
  3.430E+00 -2.408E-03 .            .       *    .            .            .
  3.440E+00 -2.412E-03 .            .       *    .            .            .
  3.450E+00 -2.416E-03 .            .       *    .            .            .
  3.460E+00 -2.419E-03 .            .       *    .            .            .
  3.470E+00 -2.423E-03 .            .      *     .            .            .
  3.480E+00 -2.427E-03 .            .      *     .            .            .
  3.490E+00 -2.431E-03 .            .      *     .            .            .
  3.500E+00 -2.434E-03 .            .      *     .            .            .
  3.510E+00 -2.438E-03 .            .      *     .            .            .
  3.520E+00 -2.442E-03 .            .      *     .            .            .
  3.530E+00 -2.445E-03 .            .      *     .            .            .
  3.540E+00 -2.449E-03 .            .      *     .            .            .
  3.550E+00 -2.452E-03 .            .      *     .            .            .
  3.560E+00 -2.456E-03 .            .      *     .            .            .
  3.570E+00 -2.459E-03 .            .      *     .            .            .
  3.580E+00 -2.463E-03 .            .      *     .            .            .
  3.590E+00 -2.466E-03 .            .      *     .            .            .
  3.600E+00 -2.470E-03 .            .      *     .            .            .
  3.610E+00 -2.473E-03 .            .      *     .            .            .
  3.620E+00 -2.477E-03 .            .      *     .            .            .
  3.630E+00 -2.480E-03 .            .      *     .            .            .
  3.640E+00 -2.484E-03 .            .      *     .            .            .
  3.650E+00 -2.487E-03 .            .      *     .            .            .
  3.660E+00 -2.490E-03 .            .      *     .            .            .
  3.670E+00 -2.494E-03 .            .      *     .            .            .
  3.680E+00 -2.497E-03 .            .      *     .            .            .
  3.690E+00 -2.500E-03 .            .     *      .            .            .
  3.700E+00 -2.504E-03 .            .     *      .            .            .
  3.710E+00 -2.507E-03 .            .     *      .            .            .
  3.720E+00 -2.510E-03 .            .     *      .            .            .
  3.730E+00 -2.513E-03 .            .     *      .            .            .
  3.740E+00 -2.516E-03 .            .     *      .            .            .
  3.750E+00 -2.520E-03 .            .     *      .            .            .
  3.760E+00 -2.523E-03 .            .     *      .            .            .
  3.770E+00 -2.526E-03 .            .     *      .            .            .
  3.780E+00 -2.529E-03 .            .     *      .            .            .
  3.790E+00 -2.532E-03 .            .     *      .            .            .
  3.800E+00 -2.535E-03 .            .     *      .            .            .
  3.810E+00 -2.538E-03 .            .     *      .            .            .
  3.820E+00 -2.541E-03 .            .     *      .            .            .
  3.830E+00 -2.544E-03 .            .     *      .            .            .
  3.840E+00 -2.547E-03 .            .     *      .            .            .
  3.850E+00 -2.550E-03 .            .     *      .            .            .
  3.860E+00 -2.553E-03 .            .     *      .            .            .
  3.870E+00 -2.556E-03 .            .     *      .            .            .
  3.880E+00 -2.559E-03 .            .     *      .            .            .
  3.890E+00 -2.562E-03 .            .     *      .            .            .
  3.900E+00 -2.565E-03 .            .     *      .            .            .
  3.910E+00 -2.567E-03 .            .     *      .            .            .
  3.920E+00 -2.570E-03 .            .     *      .            .            .
  3.930E+00 -2.573E-03 .            .     *      .            .            .
  3.940E+00 -2.576E-03 .            .     *      .            .            .
  3.950E+00 -2.579E-03 .            .    *       .            .            .
  3.960E+00 -2.581E-03 .            .    *       .            .            .
  3.970E+00 -2.584E-03 .            .    *       .            .            .
  3.980E+00 -2.587E-03 .            .    *       .            .            .
  3.990E+00 -2.589E-03 .            .    *       .            .            .
  4.000E+00 -2.592E-03 .            .    *       .            .            .
  4.010E+00 -2.595E-03 .            .    *       .            .            .
  4.020E+00 -2.597E-03 .            .    *       .            .            .
  4.030E+00 -2.600E-03 .            .    *       .            .            .
  4.040E+00 -2.602E-03 .            .    *       .            .            .
  4.050E+00 -2.605E-03 .            .    *       .            .            .
  4.060E+00 -2.607E-03 .            .    *       .            .            .
  4.070E+00 -2.610E-03 .            .    *       .            .            .
  4.080E+00 -2.612E-03 .            .    *       .            .            .
  4.090E+00 -2.615E-03 .            .    *       .            .            .
  4.100E+00 -2.617E-03 .            .    *       .            .            .
  4.110E+00 -2.620E-03 .            .    *       .            .            .
  4.120E+00 -2.622E-03 .            .    *       .            .            .
  4.130E+00 -2.625E-03 .            .    *       .            .            .
  4.140E+00 -2.627E-03 .            .    *       .            .            .
  4.150E+00 -2.629E-03 .            .    *       .            .            .
  4.160E+00 -2.632E-03 .            .    *       .            .            .
  4.170E+00 -2.634E-03 .            .    *       .            .            .
  4.180E+00 -2.636E-03 .            .    *       .            .            .
  4.190E+00 -2.638E-03 .            .    *       .            .            .
  4.200E+00 -2.641E-03 .            .    *       .            .            .
  4.210E+00 -2.643E-03 .            .    *       .            .            .
  4.220E+00 -2.645E-03 .            .    *       .            .            .
  4.230E+00 -2.647E-03 .            .    *       .            .            .
  4.240E+00 -2.649E-03 .            .    *       .            .            .
  4.250E+00 -2.651E-03 .            .    *       .            .            .
  4.260E+00 -2.654E-03 .            .    *       .            .            .
  4.270E+00 -2.656E-03 .            .   *        .            .            .
  4.280E+00 -2.658E-03 .            .   *        .            .            .
  4.290E+00 -2.660E-03 .            .   *        .            .            .
  4.300E+00 -2.662E-03 .            .   *        .            .            .
  4.310E+00 -2.664E-03 .            .   *        .            .            .
  4.320E+00 -2.666E-03 .            .   *        .            .            .
  4.330E+00 -2.668E-03 .            .   *        .            .            .
  4.340E+00 -2.670E-03 .            .   *        .            .            .
  4.350E+00 -2.672E-03 .            .   *        .            .            .
  4.360E+00 -2.673E-03 .            .   *        .            .            .
  4.370E+00 -2.675E-03 .            .   *        .            .            .
  4.380E+00 -2.677E-03 .            .   *        .            .            .
  4.390E+00 -2.679E-03 .            .   *        .            .            .
  4.400E+00 -2.681E-03 .            .   *        .            .            .
  4.410E+00 -2.683E-03 .            .   *        .            .            .
  4.420E+00 -2.684E-03 .            .   *        .            .            .
  4.430E+00 -2.686E-03 .            .   *        .            .            .
  4.440E+00 -2.688E-03 .            .   *        .            .            .
  4.450E+00 -2.690E-03 .            .   *        .            .            .
  4.460E+00 -2.691E-03 .            .   *        .            .            .
  4.470E+00 -2.693E-03 .            .   *        .            .            .
  4.480E+00 -2.695E-03 .            .   *        .            .            .
  4.490E+00 -2.696E-03 .            .   *        .            .            .
  4.500E+00 -2.698E-03 .            .   *        .            .            .
  4.510E+00 -2.699E-03 .            .   *        .            .            .
  4.520E+00 -2.701E-03 .            .   *        .            .            .
  4.530E+00 -2.702E-03 .            .   *        .            .            .
  4.540E+00 -2.704E-03 .            .   *        .            .            .
  4.550E+00 -2.705E-03 .            .   *        .            .            .
  4.560E+00 -2.707E-03 .            .   *        .            .            .
  4.570E+00 -2.708E-03 .            .   *        .            .            .
  4.580E+00 -2.710E-03 .            .   *        .            .            .
  4.590E+00 -2.711E-03 .            .   *        .            .            .
  4.600E+00 -2.713E-03 .            .   *        .            .            .
  4.610E+00 -2.714E-03 .            .   *        .            .            .
  4.620E+00 -2.715E-03 .            .   *        .            .            .
  4.630E+00 -2.717E-03 .            .   *        .            .            .
  4.640E+00 -2.718E-03 .            .   *        .            .            .
  4.650E+00 -2.719E-03 .            .   *        .            .            .
  4.660E+00 -2.720E-03 .            .   *        .            .            .
  4.670E+00 -2.722E-03 .            .   *        .            .            .
  4.680E+00 -2.723E-03 .            .   *        .            .            .
  4.690E+00 -2.724E-03 .            .   *        .            .            .
  4.700E+00 -2.725E-03 .            .   *        .            .            .
  4.710E+00 -2.726E-03 .            .   *        .            .            .
  4.720E+00 -2.727E-03 .            .   *        .            .            .
  4.730E+00 -2.729E-03 .            .   *        .            .            .
  4.740E+00 -2.730E-03 .            .   *        .            .            .
  4.750E+00 -2.731E-03 .            .   *        .            .            .
  4.760E+00 -2.732E-03 .            .  *         .            .            .
  4.770E+00 -2.733E-03 .            .  *         .            .            .
  4.780E+00 -2.734E-03 .            .  *         .            .            .
  4.790E+00 -2.735E-03 .            .  *         .            .            .
  4.800E+00 -2.736E-03 .            .  *         .            .            .
  4.810E+00 -2.737E-03 .            .  *         .            .            .
  4.820E+00 -2.737E-03 .            .  *         .            .            .
  4.830E+00 -2.738E-03 .            .  *         .            .            .
  4.840E+00 -2.739E-03 .            .  *         .            .            .
  4.850E+00 -2.740E-03 .            .  *         .            .            .
  4.860E+00 -2.741E-03 .            .  *         .            .            .
  4.870E+00 -2.742E-03 .            .  *         .            .            .
  4.880E+00 -2.742E-03 .            .  *         .            .            .
  4.890E+00 -2.743E-03 .            .  *         .            .            .
  4.900E+00 -2.744E-03 .            .  *         .            .            .
  4.910E+00 -2.745E-03 .            .  *         .            .            .
  4.920E+00 -2.745E-03 .            .  *         .            .            .
  4.930E+00 -2.746E-03 .            .  *         .            .            .
  4.940E+00 -2.747E-03 .            .  *         .            .            .
  4.950E+00 -2.747E-03 .            .  *         .            .            .
  4.960E+00 -2.748E-03 .            .  *         .            .            .
  4.970E+00 -2.748E-03 .            .  *         .            .            .
  4.980E+00 -2.749E-03 .            .  *         .            .            .
  4.990E+00 -2.749E-03 .            .  *         .            .            .
  5.000E+00 -2.750E-03 .            .  *         .            .            .
  5.010E+00 -2.751E-03 .            .  *         .            .            .
  5.020E+00 -2.751E-03 .            .  *         .            .            .
  5.030E+00 -2.752E-03 .            .  *         .            .            .
  5.040E+00 -2.752E-03 .            .  *         .            .            .
  5.050E+00 -2.753E-03 .            .  *         .            .            .
  5.060E+00 -2.753E-03 .            .  *         .            .            .
  5.070E+00 -2.754E-03 .            .  *         .            .            .
  5.080E+00 -2.754E-03 .            .  *         .            .            .
  5.090E+00 -2.755E-03 .            .  *         .            .            .
  5.100E+00 -2.755E-03 .            .  *         .            .            .
  5.110E+00 -2.756E-03 .            .  *         .            .            .
  5.120E+00 -2.756E-03 .            .  *         .            .            .
  5.130E+00 -2.757E-03 .            .  *         .            .            .
  5.140E+00 -2.757E-03 .            .  *         .            .            .
  5.150E+00 -2.758E-03 .            .  *         .            .            .
  5.160E+00 -2.758E-03 .            .  *         .            .            .
  5.170E+00 -2.759E-03 .            .  *         .            .            .
  5.180E+00 -2.759E-03 .            .  *         .            .            .
  5.190E+00 -2.760E-03 .            .  *         .            .            .
  5.200E+00 -2.760E-03 .            .  *         .            .            .
  5.210E+00 -2.761E-03 .            .  *         .            .            .
  5.220E+00 -2.761E-03 .            .  *         .            .            .
  5.230E+00 -2.762E-03 .            .  *         .            .            .
  5.240E+00 -2.762E-03 .            .  *         .            .            .
  5.250E+00 -2.763E-03 .            .  *         .            .            .
  5.260E+00 -2.763E-03 .            .  *         .            .            .
  5.270E+00 -2.764E-03 .            .  *         .            .            .
  5.280E+00 -2.764E-03 .            .  *         .            .            .
  5.290E+00 -2.765E-03 .            .  *         .            .            .
  5.300E+00 -2.765E-03 .            .  *         .            .            .
  5.310E+00 -2.766E-03 .            .  *         .            .            .
  5.320E+00 -2.766E-03 .            .  *         .            .            .
  5.330E+00 -2.767E-03 .            .  *         .            .            .
  5.340E+00 -2.767E-03 .            .  *         .            .            .
  5.350E+00 -2.768E-03 .            .  *         .            .            .
  5.360E+00 -2.768E-03 .            .  *         .            .            .
  5.370E+00 -2.769E-03 .            .  *         .            .            .
  5.380E+00 -2.769E-03 .            .  *         .            .            .
  5.390E+00 -2.770E-03 .            .  *         .            .            .
  5.400E+00 -2.770E-03 .            .  *         .            .            .
  5.410E+00 -2.771E-03 .            .  *         .            .            .
  5.420E+00 -2.771E-03 .            .  *         .            .            .
  5.430E+00 -2.772E-03 .            .  *         .            .            .
  5.440E+00 -2.772E-03 .            .  *         .            .            .
  5.450E+00 -2.773E-03 .            .  *         .            .            .
  5.460E+00 -2.773E-03 .            .  *         .            .            .
  5.470E+00 -2.774E-03 .            .  *         .            .            .
  5.480E+00 -2.774E-03 .            .  *         .            .            .
  5.490E+00 -2.775E-03 .            .  *         .            .            .
  5.500E+00 -2.775E-03 .            .  *         .            .            .
  5.510E+00 -2.776E-03 .            .  *         .            .            .
  5.520E+00 -2.776E-03 .            .  *         .            .            .
  5.530E+00 -2.777E-03 .            .  *         .            .            .
  5.540E+00 -2.777E-03 .            .  *         .            .            .
  5.550E+00 -2.778E-03 .            .  *         .            .            .
  5.560E+00 -2.778E-03 .            .  *         .            .            .
  5.570E+00 -2.779E-03 .            .  *         .            .            .
  5.580E+00 -2.779E-03 .            .  *         .            .            .
  5.590E+00 -2.780E-03 .            .  *         .            .            .
  5.600E+00 -2.780E-03 .            .  *         .            .            .
  5.610E+00 -2.781E-03 .            .  *         .            .            .
  5.620E+00 -2.781E-03 .            .  *         .            .            .
  5.630E+00 -2.782E-03 .            .  *         .            .            .
  5.640E+00 -2.782E-03 .            .  *         .            .            .
  5.650E+00 -2.783E-03 .            .  *         .            .            .
  5.660E+00 -2.783E-03 .            .  *         .            .            .
  5.670E+00 -2.784E-03 .            .  *         .            .            .
  5.680E+00 -2.784E-03 .            .  *         .            .            .
  5.690E+00 -2.785E-03 .            .  *         .            .            .
  5.700E+00 -2.785E-03 .            .  *         .            .            .
  5.710E+00 -2.786E-03 .            .  *         .            .            .
  5.720E+00 -2.786E-03 .            .  *         .            .            .
  5.730E+00 -2.787E-03 .            .  *         .            .            .
  5.740E+00 -2.787E-03 .            .  *         .            .            .
  5.750E+00 -2.788E-03 .            .  *         .            .            .
  5.760E+00 -2.788E-03 .            .  *         .            .            .
  5.770E+00 -2.789E-03 .            .  *         .            .            .
  5.780E+00 -2.789E-03 .            .  *         .            .            .
  5.790E+00 -2.790E-03 .            .  *         .            .            .
  5.800E+00 -2.790E-03 .            .  *         .            .            .
  5.810E+00 -2.791E-03 .            .  *         .            .            .
  5.820E+00 -2.791E-03 .            .  *         .            .            .
  5.830E+00 -2.792E-03 .            .  *         .            .            .
  5.840E+00 -2.792E-03 .            .  *         .            .            .
  5.850E+00 -2.793E-03 .            .  *         .            .            .
  5.860E+00 -2.793E-03 .            .  *         .            .            .
  5.870E+00 -2.794E-03 .            .  *         .            .            .
  5.880E+00 -2.794E-03 .            .  *         .            .            .
  5.890E+00 -2.795E-03 .            .  *         .            .            .
  5.900E+00 -2.795E-03 .            .  *         .            .            .
  5.910E+00 -2.796E-03 .            .  *         .            .            .
  5.920E+00 -2.796E-03 .            .  *         .            .            .
  5.930E+00 -2.797E-03 .            .  *         .            .            .
  5.940E+00 -2.797E-03 .            .  *         .            .            .
  5.950E+00 -2.798E-03 .            .  *         .            .            .
  5.960E+00 -2.798E-03 .            .  *         .            .            .
  5.970E+00 -2.799E-03 .            .  *         .            .            .
  5.980E+00 -2.799E-03 .            .  *         .            .            .
  5.990E+00 -2.800E-03 .            .  *         .            .            .
  6.000E+00 -2.800E-03 .            .  *         .            .            .
  6.010E+00 -2.801E-03 .            .  *         .            .            .
  6.020E+00 -2.801E-03 .            .  *         .            .            .
  6.030E+00 -2.802E-03 .            .  *         .            .            .
  6.040E+00 -2.802E-03 .            .  *         .            .            .
  6.050E+00 -2.803E-03 .            .  *         .            .            .
  6.060E+00 -2.803E-03 .            .  *         .            .            .
  6.070E+00 -2.804E-03 .            .  *         .            .            .
  6.080E+00 -2.804E-03 .            .  *         .            .            .
  6.090E+00 -2.805E-03 .            .  *         .            .            .
  6.100E+00 -2.805E-03 .            .  *         .            .            .
  6.110E+00 -2.806E-03 .            .  *         .            .            .
  6.120E+00 -2.806E-03 .            .  *         .            .            .
  6.130E+00 -2.807E-03 .            .  *         .            .            .
  6.140E+00 -2.807E-03 .            .  *         .            .            .
  6.150E+00 -2.808E-03 .            .  *         .            .            .
  6.160E+00 -2.808E-03 .            . *          .            .            .
  6.170E+00 -2.809E-03 .            . *          .            .            .
  6.180E+00 -2.809E-03 .            . *          .            .            .
  6.190E+00 -2.810E-03 .            . *          .            .            .
  6.200E+00 -2.810E-03 .            . *          .            .            .
  6.210E+00 -2.811E-03 .            . *          .            .            .
  6.220E+00 -2.811E-03 .            . *          .            .            .
  6.230E+00 -2.812E-03 .            . *          .            .            .
  6.240E+00 -2.812E-03 .            . *          .            .            .
  6.250E+00 -2.813E-03 .            . *          .            .            .
  6.260E+00 -2.813E-03 .            . *          .            .            .
  6.270E+00 -2.814E-03 .            . *          .            .            .
  6.280E+00 -2.814E-03 .            . *          .            .            .
  6.290E+00 -2.815E-03 .            . *          .            .            .
  6.300E+00 -2.815E-03 .            . *          .            .            .
  6.310E+00 -2.816E-03 .            . *          .            .            .
  6.320E+00 -2.816E-03 .            . *          .            .            .
  6.330E+00 -2.817E-03 .            . *          .            .            .
  6.340E+00 -2.817E-03 .            . *          .            .            .
  6.350E+00 -2.818E-03 .            . *          .            .            .
  6.360E+00 -2.818E-03 .            . *          .            .            .
  6.370E+00 -2.819E-03 .            . *          .            .            .
  6.380E+00 -2.819E-03 .            . *          .            .            .
  6.390E+00 -2.820E-03 .            . *          .            .            .
  6.400E+00 -2.820E-03 .            . *          .            .            .
  6.410E+00 -2.821E-03 .            . *          .            .            .
  6.420E+00 -2.821E-03 .            . *          .            .            .
  6.430E+00 -2.822E-03 .            . *          .            .            .
  6.440E+00 -2.822E-03 .            . *          .            .            .
  6.450E+00 -2.823E-03 .            . *          .            .            .
  6.460E+00 -2.823E-03 .            . *          .            .            .
  6.470E+00 -2.824E-03 .            . *          .            .            .
  6.480E+00 -2.824E-03 .            . *          .            .            .
  6.490E+00 -2.825E-03 .            . *          .            .            .
  6.500E+00 -2.825E-03 .            . *          .            .            .
  6.510E+00 -2.826E-03 .            . *          .            .            .
  6.520E+00 -2.826E-03 .            . *          .            .            .
  6.530E+00 -2.827E-03 .            . *          .            .            .
  6.540E+00 -2.827E-03 .            . *          .            .            .
  6.550E+00 -2.828E-03 .            . *          .            .            .
  6.560E+00 -2.828E-03 .            . *          .            .            .
  6.570E+00 -2.829E-03 .            . *          .            .            .
  6.580E+00 -2.829E-03 .            . *          .            .            .
  6.590E+00 -2.830E-03 .            . *          .            .            .
  6.600E+00 -2.830E-03 .            . *          .            .            .
  6.610E+00 -2.831E-03 .            . *          .            .            .
  6.620E+00 -2.831E-03 .            . *          .            .            .
  6.630E+00 -2.832E-03 .            . *          .            .            .
  6.640E+00 -2.832E-03 .            . *          .            .            .
  6.650E+00 -2.833E-03 .            . *          .            .            .
  6.660E+00 -2.833E-03 .            . *          .            .            .
  6.670E+00 -2.834E-03 .            . *          .            .            .
  6.680E+00 -2.834E-03 .            . *          .            .            .
  6.690E+00 -2.835E-03 .            . *          .            .            .
  6.700E+00 -2.835E-03 .            . *          .            .            .
  6.710E+00 -2.836E-03 .            . *          .            .            .
  6.720E+00 -2.836E-03 .            . *          .            .            .
  6.730E+00 -2.837E-03 .            . *          .            .            .
  6.740E+00 -2.837E-03 .            . *          .            .            .
  6.750E+00 -2.838E-03 .            . *          .            .            .
  6.760E+00 -2.838E-03 .            . *          .            .            .
  6.770E+00 -2.839E-03 .            . *          .            .            .
  6.780E+00 -2.839E-03 .            . *          .            .            .
  6.790E+00 -2.840E-03 .            . *          .            .            .
  6.800E+00 -2.840E-03 .            . *          .            .            .
  6.810E+00 -2.841E-03 .            . *          .            .            .
  6.820E+00 -2.841E-03 .            . *          .            .            .
  6.830E+00 -2.842E-03 .            . *          .            .            .
  6.840E+00 -2.842E-03 .            . *          .            .            .
  6.850E+00 -2.843E-03 .            . *          .            .            .
  6.860E+00 -2.843E-03 .            . *          .            .            .
  6.870E+00 -2.844E-03 .            . *          .            .            .
  6.880E+00 -2.844E-03 .            . *          .            .            .
  6.890E+00 -2.845E-03 .            . *          .            .            .
  6.900E+00 -2.845E-03 .            . *          .            .            .
  6.910E+00 -2.846E-03 .            . *          .            .            .
  6.920E+00 -2.846E-03 .            . *          .            .            .
  6.930E+00 -2.847E-03 .            . *          .            .            .
  6.940E+00 -2.847E-03 .            . *          .            .            .
  6.950E+00 -2.848E-03 .            . *          .            .            .
  6.960E+00 -2.848E-03 .            . *          .            .            .
  6.970E+00 -2.849E-03 .            . *          .            .            .
  6.980E+00 -2.849E-03 .            . *          .            .            .
  6.990E+00 -2.850E-03 .            . *          .            .            .
  7.000E+00 -2.850E-03 .            . *          .            .            .
  7.010E+00 -2.851E-03 .            . *          .            .            .
  7.020E+00 -2.851E-03 .            . *          .            .            .
  7.030E+00 -2.852E-03 .            . *          .            .            .
  7.040E+00 -2.852E-03 .            . *          .            .            .
  7.050E+00 -2.853E-03 .            . *          .            .            .
  7.060E+00 -2.853E-03 .            . *          .            .            .
  7.070E+00 -2.854E-03 .            . *          .            .            .
  7.080E+00 -2.854E-03 .            . *          .            .            .
  7.090E+00 -2.855E-03 .            . *          .            .            .
  7.100E+00 -2.855E-03 .            . *          .            .            .
  7.110E+00 -2.856E-03 .            . *          .            .            .
  7.120E+00 -2.856E-03 .            . *          .            .            .
  7.130E+00 -2.857E-03 .            . *          .            .            .
  7.140E+00 -2.857E-03 .            . *          .            .            .
  7.150E+00 -2.858E-03 .            . *          .            .            .
  7.160E+00 -2.858E-03 .            . *          .            .            .
  7.170E+00 -2.859E-03 .            . *          .            .            .
  7.180E+00 -2.859E-03 .            . *          .            .            .
  7.190E+00 -2.860E-03 .            . *          .            .            .
  7.200E+00 -2.860E-03 .            . *          .            .            .
  7.210E+00 -2.861E-03 .            . *          .            .            .
  7.220E+00 -2.861E-03 .            . *          .            .            .
  7.230E+00 -2.862E-03 .            . *          .            .            .
  7.240E+00 -2.862E-03 .            . *          .            .            .
  7.250E+00 -2.863E-03 .            . *          .            .            .
  7.260E+00 -2.863E-03 .            . *          .            .            .
  7.270E+00 -2.864E-03 .            . *          .            .            .
  7.280E+00 -2.864E-03 .            . *          .            .            .
  7.290E+00 -2.865E-03 .            . *          .            .            .
  7.300E+00 -2.865E-03 .            . *          .            .            .
  7.310E+00 -2.866E-03 .            . *          .            .            .
  7.320E+00 -2.866E-03 .            . *          .            .            .
  7.330E+00 -2.867E-03 .            . *          .            .            .
  7.340E+00 -2.867E-03 .            . *          .            .            .
  7.350E+00 -2.868E-03 .            . *          .            .            .
  7.360E+00 -2.868E-03 .            . *          .            .            .
  7.370E+00 -2.869E-03 .            . *          .            .            .
  7.380E+00 -2.869E-03 .            . *          .            .            .
  7.390E+00 -2.870E-03 .            . *          .            .            .
  7.400E+00 -2.870E-03 .            . *          .            .            .
  7.410E+00 -2.871E-03 .            . *          .            .            .
  7.420E+00 -2.871E-03 .            . *          .            .            .
  7.430E+00 -2.872E-03 .            . *          .            .            .
  7.440E+00 -2.872E-03 .            . *          .            .            .
  7.450E+00 -2.873E-03 .            . *          .            .            .
  7.460E+00 -2.873E-03 .            . *          .            .            .
  7.470E+00 -2.874E-03 .            . *          .            .            .
  7.480E+00 -2.874E-03 .            . *          .            .            .
  7.490E+00 -2.875E-03 .            . *          .            .            .
  7.500E+00 -2.875E-03 .            . *          .            .            .
  7.510E+00 -2.876E-03 .            . *          .            .            .
  7.520E+00 -2.876E-03 .            . *          .            .            .
  7.530E+00 -2.877E-03 .            . *          .            .            .
  7.540E+00 -2.877E-03 .            . *          .            .            .
  7.550E+00 -2.878E-03 .            . *          .            .            .
  7.560E+00 -2.878E-03 .            . *          .            .            .
  7.570E+00 -2.879E-03 .            . *          .            .            .
  7.580E+00 -2.879E-03 .            . *          .            .            .
  7.590E+00 -2.880E-03 .            . *          .            .            .
  7.600E+00 -2.880E-03 .            . *          .            .            .
  7.610E+00 -2.881E-03 .            . *          .            .            .
  7.620E+00 -2.881E-03 .            . *          .            .            .
  7.630E+00 -2.882E-03 .            . *          .            .            .
  7.640E+00 -2.882E-03 .            . *          .            .            .
  7.650E+00 -2.883E-03 .            . *          .            .            .
  7.660E+00 -2.883E-03 .            . *          .            .            .
  7.670E+00 -2.884E-03 .            . *          .            .            .
  7.680E+00 -2.884E-03 .            . *          .            .            .
  7.690E+00 -2.885E-03 .            . *          .            .            .
  7.700E+00 -2.885E-03 .            .*           .            .            .
  7.710E+00 -2.886E-03 .            .*           .            .            .
  7.720E+00 -2.886E-03 .            .*           .            .            .
  7.730E+00 -2.887E-03 .            .*           .            .            .
  7.740E+00 -2.887E-03 .            .*           .            .            .
  7.750E+00 -2.888E-03 .            .*           .            .            .
  7.760E+00 -2.888E-03 .            .*           .            .            .
  7.770E+00 -2.889E-03 .            .*           .            .            .
  7.780E+00 -2.889E-03 .            .*           .            .            .
  7.790E+00 -2.890E-03 .            .*           .            .            .
  7.800E+00 -2.890E-03 .            .*           .            .            .
  7.810E+00 -2.891E-03 .            .*           .            .            .
  7.820E+00 -2.891E-03 .            .*           .            .            .
  7.830E+00 -2.892E-03 .            .*           .            .            .
  7.840E+00 -2.892E-03 .            .*           .            .            .
  7.850E+00 -2.893E-03 .            .*           .            .            .
  7.860E+00 -2.893E-03 .            .*           .            .            .
  7.870E+00 -2.894E-03 .            .*           .            .            .
  7.880E+00 -2.894E-03 .            .*           .            .            .
  7.890E+00 -2.895E-03 .            .*           .            .            .
  7.900E+00 -2.895E-03 .            .*           .            .            .
  7.910E+00 -2.896E-03 .            .*           .            .            .
  7.920E+00 -2.896E-03 .            .*           .            .            .
  7.930E+00 -2.897E-03 .            .*           .            .            .
  7.940E+00 -2.897E-03 .            .*           .            .            .
  7.950E+00 -2.898E-03 .            .*           .            .            .
  7.960E+00 -2.898E-03 .            .*           .            .            .
  7.970E+00 -2.899E-03 .            .*           .            .            .
  7.980E+00 -2.899E-03 .            .*           .            .            .
  7.990E+00 -2.900E-03 .            .*           .            .            .
  8.000E+00 -2.900E-03 .            .*           .            .            .
  8.010E+00 -2.901E-03 .            .*           .            .            .
  8.020E+00 -2.901E-03 .            .*           .            .            .
  8.030E+00 -2.902E-03 .            .*           .            .            .
  8.040E+00 -2.902E-03 .            .*           .            .            .
  8.050E+00 -2.903E-03 .            .*           .            .            .
  8.060E+00 -2.903E-03 .            .*           .            .            .
  8.070E+00 -2.904E-03 .            .*           .            .            .
  8.080E+00 -2.904E-03 .            .*           .            .            .
  8.090E+00 -2.905E-03 .            .*           .            .            .
  8.100E+00 -2.905E-03 .            .*           .            .            .
  8.110E+00 -2.906E-03 .            .*           .            .            .
  8.120E+00 -2.906E-03 .            .*           .            .            .
  8.130E+00 -2.907E-03 .            .*           .            .            .
  8.140E+00 -2.907E-03 .            .*           .            .            .
  8.150E+00 -2.908E-03 .            .*           .            .            .
  8.160E+00 -2.908E-03 .            .*           .            .            .
  8.170E+00 -2.909E-03 .            .*           .            .            .
  8.180E+00 -2.909E-03 .            .*           .            .            .
  8.190E+00 -2.910E-03 .            .*           .            .            .
  8.200E+00 -2.910E-03 .            .*           .            .            .
  8.210E+00 -2.911E-03 .            .*           .            .            .
  8.220E+00 -2.911E-03 .            .*           .            .            .
  8.230E+00 -2.912E-03 .            .*           .            .            .
  8.240E+00 -2.912E-03 .            .*           .            .            .
  8.250E+00 -2.913E-03 .            .*           .            .            .
  8.260E+00 -2.913E-03 .            .*           .            .            .
  8.270E+00 -2.914E-03 .            .*           .            .            .
  8.280E+00 -2.914E-03 .            .*           .            .            .
  8.290E+00 -2.915E-03 .            .*           .            .            .
  8.300E+00 -2.915E-03 .            .*           .            .            .
  8.310E+00 -2.916E-03 .            .*           .            .            .
  8.320E+00 -2.916E-03 .            .*           .            .            .
  8.330E+00 -2.917E-03 .            .*           .            .            .
  8.340E+00 -2.917E-03 .            .*           .            .            .
  8.350E+00 -2.918E-03 .            .*           .            .            .
  8.360E+00 -2.918E-03 .            .*           .            .            .
  8.370E+00 -2.919E-03 .            .*           .            .            .
  8.380E+00 -2.919E-03 .            .*           .            .            .
  8.390E+00 -2.920E-03 .            .*           .            .            .
  8.400E+00 -2.920E-03 .            .*           .            .            .
  8.410E+00 -2.921E-03 .            .*           .            .            .
  8.420E+00 -2.921E-03 .            .*           .            .            .
  8.430E+00 -2.922E-03 .            .*           .            .            .
  8.440E+00 -2.922E-03 .            .*           .            .            .
  8.450E+00 -2.923E-03 .            .*           .            .            .
  8.460E+00 -2.923E-03 .            .*           .            .            .
  8.470E+00 -2.924E-03 .            .*           .            .            .
  8.480E+00 -2.924E-03 .            .*           .            .            .
  8.490E+00 -2.925E-03 .            .*           .            .            .
  8.500E+00 -2.925E-03 .            .*           .            .            .
  8.510E+00 -2.926E-03 .            .*           .            .            .
  8.520E+00 -2.926E-03 .            .*           .            .            .
  8.530E+00 -2.927E-03 .            .*           .            .            .
  8.540E+00 -2.927E-03 .            .*           .            .            .
  8.550E+00 -2.928E-03 .            .*           .            .            .
  8.560E+00 -2.928E-03 .            .*           .            .            .
  8.570E+00 -2.929E-03 .            .*           .            .            .
  8.580E+00 -2.929E-03 .            .*           .            .            .
  8.590E+00 -2.930E-03 .            .*           .            .            .
  8.600E+00 -2.930E-03 .            .*           .            .            .
  8.610E+00 -2.931E-03 .            .*           .            .            .
  8.620E+00 -2.931E-03 .            .*           .            .            .
  8.630E+00 -2.932E-03 .            .*           .            .            .
  8.640E+00 -2.932E-03 .            .*           .            .            .
  8.650E+00 -2.933E-03 .            .*           .            .            .
  8.660E+00 -2.933E-03 .            .*           .            .            .
  8.670E+00 -2.934E-03 .            .*           .            .            .
  8.680E+00 -2.934E-03 .            .*           .            .            .
  8.690E+00 -2.935E-03 .            .*           .            .            .
  8.700E+00 -2.935E-03 .            .*           .            .            .
  8.710E+00 -2.936E-03 .            .*           .            .            .
  8.720E+00 -2.936E-03 .            .*           .            .            .
  8.730E+00 -2.937E-03 .            .*           .            .            .
  8.740E+00 -2.937E-03 .            .*           .            .            .
  8.750E+00 -2.938E-03 .            .*           .            .            .
  8.760E+00 -2.938E-03 .            .*           .            .            .
  8.770E+00 -2.939E-03 .            .*           .            .            .
  8.780E+00 -2.939E-03 .            .*           .            .            .
  8.790E+00 -2.940E-03 .            .*           .            .            .
  8.800E+00 -2.940E-03 .            .*           .            .            .
  8.810E+00 -2.941E-03 .            .*           .            .            .
  8.820E+00 -2.941E-03 .            .*           .            .            .
  8.830E+00 -2.942E-03 .            .*           .            .            .
  8.840E+00 -2.942E-03 .            .*           .            .            .
  8.850E+00 -2.943E-03 .            .*           .            .            .
  8.860E+00 -2.943E-03 .            .*           .            .            .
  8.870E+00 -2.944E-03 .            .*           .            .            .
  8.880E+00 -2.944E-03 .            .*           .            .            .
  8.890E+00 -2.945E-03 .            .*           .            .            .
  8.900E+00 -2.945E-03 .            .*           .            .            .
  8.910E+00 -2.946E-03 .            .*           .            .            .
  8.920E+00 -2.946E-03 .            .*           .            .            .
  8.930E+00 -2.947E-03 .            .*           .            .            .
  8.940E+00 -2.947E-03 .            .*           .            .            .
  8.950E+00 -2.948E-03 .            .*           .            .            .
  8.960E+00 -2.948E-03 .            .*           .            .            .
  8.970E+00 -2.949E-03 .            .*           .            .            .
  8.980E+00 -2.949E-03 .            .*           .            .            .
  8.990E+00 -2.950E-03 .            .*           .            .            .
  9.000E+00 -2.950E-03 .            .*           .            .            .
  9.010E+00 -2.951E-03 .            .*           .            .            .
  9.020E+00 -2.951E-03 .            .*           .            .            .
  9.030E+00 -2.952E-03 .            .*           .            .            .
  9.040E+00 -2.952E-03 .            .*           .            .            .
  9.050E+00 -2.953E-03 .            .*           .            .            .
  9.060E+00 -2.953E-03 .            .*           .            .            .
  9.070E+00 -2.954E-03 .            .*           .            .            .
  9.080E+00 -2.954E-03 .            .*           .            .            .
  9.090E+00 -2.955E-03 .            .*           .            .            .
  9.100E+00 -2.955E-03 .            .*           .            .            .
  9.110E+00 -2.956E-03 .            .*           .            .            .
  9.120E+00 -2.956E-03 .            .*           .            .            .
  9.130E+00 -2.957E-03 .            .*           .            .            .
  9.140E+00 -2.957E-03 .            .*           .            .            .
  9.150E+00 -2.958E-03 .            .*           .            .            .
  9.160E+00 -2.958E-03 .            .*           .            .            .
  9.170E+00 -2.959E-03 .            .*           .            .            .
  9.180E+00 -2.959E-03 .            .*           .            .            .
  9.190E+00 -2.960E-03 .            .*           .            .            .
  9.200E+00 -2.960E-03 .            .*           .            .            .
  9.210E+00 -2.961E-03 .            .*           .            .            .
  9.220E+00 -2.961E-03 .            .*           .            .            .
  9.230E+00 -2.962E-03 .            .*           .            .            .
  9.240E+00 -2.962E-03 .            *            .            .            .
  9.250E+00 -2.963E-03 .            *            .            .            .
  9.260E+00 -2.963E-03 .            *            .            .            .
  9.270E+00 -2.964E-03 .            *            .            .            .
  9.280E+00 -2.964E-03 .            *            .            .            .
  9.290E+00 -2.965E-03 .            *            .            .            .
  9.300E+00 -2.965E-03 .            *            .            .            .
  9.310E+00 -2.966E-03 .            *            .            .            .
  9.320E+00 -2.966E-03 .            *            .            .            .
  9.330E+00 -2.967E-03 .            *            .            .            .
  9.340E+00 -2.967E-03 .            *            .            .            .
  9.350E+00 -2.968E-03 .            *            .            .            .
  9.360E+00 -2.968E-03 .            *            .            .            .
  9.370E+00 -2.969E-03 .            *            .            .            .
  9.380E+00 -2.969E-03 .            *            .            .            .
  9.390E+00 -2.970E-03 .            *            .            .            .
  9.400E+00 -2.970E-03 .            *            .            .            .
  9.410E+00 -2.971E-03 .            *            .            .            .
  9.420E+00 -2.971E-03 .            *            .            .            .
  9.430E+00 -2.972E-03 .            *            .            .            .
  9.440E+00 -2.972E-03 .            *            .            .            .
  9.450E+00 -2.973E-03 .            *            .            .            .
  9.460E+00 -2.973E-03 .            *            .            .            .
  9.470E+00 -2.974E-03 .            *            .            .            .
  9.480E+00 -2.974E-03 .            *            .            .            .
  9.490E+00 -2.975E-03 .            *            .            .            .
  9.500E+00 -2.975E-03 .            *            .            .            .
  9.510E+00 -2.976E-03 .            *            .            .            .
  9.520E+00 -2.976E-03 .            *            .            .            .
  9.530E+00 -2.977E-03 .            *            .            .            .
  9.540E+00 -2.977E-03 .            *            .            .            .
  9.550E+00 -2.978E-03 .            *            .            .            .
  9.560E+00 -2.978E-03 .            *            .            .            .
  9.570E+00 -2.979E-03 .            *            .            .            .
  9.580E+00 -2.979E-03 .            *            .            .            .
  9.590E+00 -2.980E-03 .            *            .            .            .
  9.600E+00 -2.980E-03 .            *            .            .            .
  9.610E+00 -2.981E-03 .            *            .            .            .
  9.620E+00 -2.981E-03 .            *            .            .            .
  9.630E+00 -2.982E-03 .            *            .            .            .
  9.640E+00 -2.982E-03 .            *            .            .            .
  9.650E+00 -2.983E-03 .            *            .            .            .
  9.660E+00 -2.983E-03 .            *            .            .            .
  9.670E+00 -2.984E-03 .            *            .            .            .
  9.680E+00 -2.984E-03 .            *            .            .            .
  9.690E+00 -2.985E-03 .            *            .            .            .
  9.700E+00 -2.985E-03 .            *            .            .            .
  9.710E+00 -2.986E-03 .            *            .            .            .
  9.720E+00 -2.986E-03 .            *            .            .            .
  9.730E+00 -2.987E-03 .            *            .            .            .
  9.740E+00 -2.987E-03 .            *            .            .            .
  9.750E+00 -2.988E-03 .            *            .            .            .
  9.760E+00 -2.988E-03 .            *            .            .            .
  9.770E+00 -2.989E-03 .            *            .            .            .
  9.780E+00 -2.989E-03 .            *            .            .            .
  9.790E+00 -2.990E-03 .            *            .            .            .
  9.800E+00 -2.990E-03 .            *            .            .            .
  9.810E+00 -2.991E-03 .            *            .            .            .
  9.820E+00 -2.991E-03 .            *            .            .            .
  9.830E+00 -2.992E-03 .            *            .            .            .
  9.840E+00 -2.992E-03 .            *            .            .            .
  9.850E+00 -2.993E-03 .            *            .            .            .
  9.860E+00 -2.993E-03 .            *            .            .            .
  9.870E+00 -2.994E-03 .            *            .            .            .
  9.880E+00 -2.994E-03 .            *            .            .            .
  9.890E+00 -2.995E-03 .            *            .            .            .
  9.900E+00 -2.995E-03 .            *            .            .            .
  9.910E+00 -2.996E-03 .            *            .            .            .
  9.920E+00 -2.996E-03 .            *            .            .            .
  9.930E+00 -2.997E-03 .            *            .            .            .
  9.940E+00 -2.997E-03 .            *            .            .            .
  9.950E+00 -2.998E-03 .            *            .            .            .
  9.960E+00 -2.998E-03 .            *            .            .            .
  9.970E+00 -2.999E-03 .            *            .            .            .
  9.980E+00 -2.999E-03 .            *            .            .            .
  9.990E+00 -3.000E-03 .            *            .            .            .
  1.000E+01 -3.000E-03 .            *            .            .            .
  1.001E+01 -3.001E-03 .            *            .            .            .
  1.002E+01 -3.001E-03 .            *            .            .            .
  1.003E+01 -3.002E-03 .            *            .            .            .
  1.004E+01 -3.002E-03 .            *            .            .            .
  1.005E+01 -3.003E-03 .            *            .            .            .
  1.006E+01 -3.003E-03 .            *            .            .            .
[...]
  1.267E+01 -3.134E-03 .          * .            .            .            .
  1.268E+01 -3.134E-03 .          * .            .            .            .
  1.269E+01 -3.135E-03 .          * .            .            .            .
  1.270E+01 -3.135E-03 .          * .            .            .            .
  1.271E+01 -3.136E-03 .          * .            .            .            .
  1.272E+01 -3.136E-03 .          * .            .            .            .
  1.273E+01 -3.137E-03 .          * .            .            .            .
  1.274E+01 -3.137E-03 .          * .            .            .            .
  1.275E+01 -3.138E-03 .          * .            .            .            .
  1.276E+01 -3.138E-03 .          * .            .            .            .
  1.277E+01 -3.139E-03 .          * .            .            .            .
  1.278E+01 -3.139E-03 .          * .            .            .            .
  1.279E+01 -3.140E-03 .          * .            .            .            .
  1.280E+01 -3.140E-03 .          * .            .            .            .
  1.281E+01 -3.141E-03 .          * .            .            .            .
  1.282E+01 -3.141E-03 .          * .            .            .            .
  1.283E+01 -3.142E-03 .          * .            .            .            .
  1.284E+01 -3.142E-03 .          * .            .            .            .
  1.285E+01 -3.143E-03 .          * .            .            .            .
  1.286E+01 -3.143E-03 .          * .            .            .            .
  1.287E+01 -3.144E-03 .          * .            .            .            .
  1.288E+01 -3.144E-03 .          * .            .            .            .
  1.289E+01 -3.145E-03 .          * .            .            .            .
  1.290E+01 -3.145E-03 .          * .            .            .            .
  1.291E+01 -3.146E-03 .          * .            .            .            .
  1.292E+01 -3.146E-03 .          * .            .            .            .
  1.293E+01 -3.147E-03 .          * .            .            .            .
  1.294E+01 -3.147E-03 .          * .            .            .            .
  1.295E+01 -3.148E-03 .          * .            .            .            .
  1.296E+01 -3.148E-03 .          * .            .            .            .
  1.297E+01 -3.149E-03 .          * .            .            .            .
  1.298E+01 -3.149E-03 .          * .            .            .            .
  1.299E+01 -3.150E-03 .          * .            .            .            .
  1.300E+01 -3.150E-03 .          * .            .            .            .
  1.301E+01 -3.151E-03 .          * .            .            .            .
  1.302E+01 -3.151E-03 .          * .            .            .            .
  1.303E+01 -3.152E-03 .          * .            .            .            .
  1.304E+01 -3.152E-03 .          * .            .            .            .
  1.305E+01 -3.153E-03 .          * .            .            .            .
  1.306E+01 -3.153E-03 .          * .            .            .            .
  1.307E+01 -3.154E-03 .          * .            .            .            .
  1.308E+01 -3.154E-03 .          * .            .            .            .
  1.309E+01 -3.155E-03 .          * .            .            .            .
  1.310E+01 -3.155E-03 .          * .            .            .            .
  1.311E+01 -3.156E-03 .          * .            .            .            .
  1.312E+01 -3.156E-03 .          * .            .            .            .
  1.313E+01 -3.157E-03 .          * .            .            .            .
  1.314E+01 -3.157E-03 .          * .            .            .            .
  1.315E+01 -3.158E-03 .          * .            .            .            .
  1.316E+01 -3.158E-03 .          * .            .            .            .
  1.317E+01 -3.159E-03 .          * .            .            .            .
  1.318E+01 -3.159E-03 .          * .            .            .            .
  1.319E+01 -3.160E-03 .          * .            .            .            .
  1.320E+01 -3.160E-03 .          * .            .            .            .
  1.321E+01 -3.161E-03 .          * .            .            .            .
  1.322E+01 -3.161E-03 .          * .            .            .            .
  1.323E+01 -3.162E-03 .          * .            .            .            .
  1.324E+01 -3.162E-03 .          * .            .            .            .
  1.325E+01 -3.163E-03 .          * .            .            .            .
  1.326E+01 -3.163E-03 .          * .            .            .            .
  1.327E+01 -3.164E-03 .          * .            .            .            .
  1.328E+01 -3.164E-03 .          * .            .            .            .
  1.329E+01 -3.165E-03 .          * .            .            .            .
  1.330E+01 -3.165E-03 .          * .            .            .            .
  1.331E+01 -3.166E-03 .          * .            .            .            .
  1.332E+01 -3.166E-03 .          * .            .            .            .
  1.333E+01 -3.167E-03 .          * .            .            .            .
  1.334E+01 -3.167E-03 .          * .            .            .            .
  1.335E+01 -3.168E-03 .          * .            .            .            .
  1.336E+01 -3.168E-03 .          * .            .            .            .
  1.337E+01 -3.169E-03 .          * .            .            .            .
  1.338E+01 -3.169E-03 .          * .            .            .            .
  1.339E+01 -3.170E-03 .          * .            .            .            .
  1.340E+01 -3.170E-03 .          * .            .            .            .
  1.341E+01 -3.171E-03 .          * .            .            .            .
  1.342E+01 -3.171E-03 .          * .            .            .            .
  1.343E+01 -3.172E-03 .          * .            .            .            .
  1.344E+01 -3.172E-03 .          * .            .            .            .
  1.345E+01 -3.173E-03 .          * .            .            .            .
  1.346E+01 -3.173E-03 .          * .            .            .            .
  1.347E+01 -3.174E-03 .          * .            .            .            .
  1.348E+01 -3.174E-03 .          * .            .            .            .
  1.349E+01 -3.175E-03 .          * .            .            .            .
  1.350E+01 -3.175E-03 .          * .            .            .            .
  1.351E+01 -3.176E-03 .          * .            .            .            .
  1.352E+01 -3.176E-03 .          * .            .            .            .
  1.353E+01 -3.177E-03 .          * .            .            .            .
  1.354E+01 -3.177E-03 .          * .            .            .            .
  1.355E+01 -3.178E-03 .          * .            .            .            .
  1.356E+01 -3.178E-03 .          * .            .            .            .
  1.357E+01 -3.179E-03 .          * .            .            .            .
  1.358E+01 -3.179E-03 .          * .            .            .            .
  1.359E+01 -3.180E-03 .          * .            .            .            .
  1.360E+01 -3.180E-03 .          * .            .            .            .
  1.361E+01 -3.181E-03 .          * .            .            .            .
  1.362E+01 -3.181E-03 .          * .            .            .            .
  1.363E+01 -3.182E-03 .          * .            .            .            .
  1.364E+01 -3.182E-03 .          * .            .            .            .
  1.365E+01 -3.183E-03 .          * .            .            .            .
  1.366E+01 -3.183E-03 .          * .            .            .            .
  1.367E+01 -3.184E-03 .          * .            .            .            .
  1.368E+01 -3.184E-03 .          * .            .            .            .
  1.369E+01 -3.185E-03 .          * .            .            .            .
  1.370E+01 -3.185E-03 .          * .            .            .            .
  1.371E+01 -3.186E-03 .          * .            .            .            .
  1.372E+01 -3.186E-03 .          * .            .            .            .
  1.373E+01 -3.187E-03 .          * .            .            .            .
  1.374E+01 -3.187E-03 .          * .            .            .            .
  1.375E+01 -3.188E-03 .          * .            .            .            .
  1.376E+01 -3.188E-03 .          * .            .            .            .
  1.377E+01 -3.189E-03 .          * .            .            .            .
  1.378E+01 -3.189E-03 .          * .            .            .            .
  1.379E+01 -3.190E-03 .          * .            .            .            .
  1.380E+01 -3.190E-03 .          * .            .            .            .
  1.381E+01 -3.191E-03 .          * .            .            .            .
  1.382E+01 -3.191E-03 .          * .            .            .            .
  1.383E+01 -3.192E-03 .          * .            .            .            .
  1.384E+01 -3.192E-03 .          * .            .            .            .
  1.385E+01 -3.193E-03 .         *  .            .            .            .
  1.386E+01 -3.193E-03 .         *  .            .            .            .
  1.387E+01 -3.194E-03 .         *  .            .            .            .
  1.388E+01 -3.194E-03 .         *  .            .            .            .
  1.389E+01 -3.195E-03 .         *  .            .            .            .
  1.390E+01 -3.195E-03 .         *  .            .            .            .
  1.391E+01 -3.196E-03 .         *  .            .            .            .
  1.392E+01 -3.196E-03 .         *  .            .            .            .
  1.393E+01 -3.197E-03 .         *  .            .            .            .
  1.394E+01 -3.197E-03 .         *  .            .            .            .
  1.395E+01 -3.198E-03 .         *  .            .            .            .
  1.396E+01 -3.198E-03 .         *  .            .            .            .
  1.397E+01 -3.199E-03 .         *  .            .            .            .
  1.398E+01 -3.199E-03 .         *  .            .            .            .
  1.399E+01 -3.200E-03 .         *  .            .            .            .
  1.400E+01 -3.200E-03 .         *  .            .            .            .
  1.401E+01 -3.201E-03 .         *  .            .            .            .
  1.402E+01 -3.201E-03 .         *  .            .            .            .
  1.403E+01 -3.202E-03 .         *  .            .            .            .
  1.404E+01 -3.202E-03 .         *  .            .            .            .
  1.405E+01 -3.203E-03 .         *  .            .            .            .
  1.406E+01 -3.203E-03 .         *  .            .            .            .
  1.407E+01 -3.204E-03 .         *  .            .            .            .
  1.408E+01 -3.204E-03 .         *  .            .            .            .
  1.409E+01 -3.205E-03 .         *  .            .            .            .
  1.410E+01 -3.205E-03 .         *  .            .            .            .
  1.411E+01 -3.206E-03 .         *  .            .            .            .
  1.412E+01 -3.206E-03 .         *  .            .            .            .
  1.413E+01 -3.207E-03 .         *  .            .            .            .
  1.414E+01 -3.207E-03 .         *  .            .            .            .
  1.415E+01 -3.208E-03 .         *  .            .            .            .
  1.416E+01 -3.208E-03 .         *  .            .            .            .
  1.417E+01 -3.209E-03 .         *  .            .            .            .
  1.418E+01 -3.209E-03 .         *  .            .            .            .
  1.419E+01 -3.210E-03 .         *  .            .            .            .
  1.420E+01 -3.210E-03 .         *  .            .            .            .
  1.421E+01 -3.211E-03 .         *  .            .            .            .
  1.422E+01 -3.211E-03 .         *  .            .            .            .
  1.423E+01 -3.212E-03 .         *  .            .            .            .
  1.424E+01 -3.212E-03 .         *  .            .            .            .
  1.425E+01 -3.213E-03 .         *  .            .            .            .
  1.426E+01 -3.213E-03 .         *  .            .            .            .
  1.427E+01 -3.214E-03 .         *  .            .            .            .
  1.428E+01 -3.214E-03 .         *  .            .            .            .
  1.429E+01 -3.215E-03 .         *  .            .            .            .
  1.430E+01 -3.215E-03 .         *  .            .            .            .
  1.431E+01 -3.216E-03 .         *  .            .            .            .
  1.432E+01 -3.216E-03 .         *  .            .            .            .
  1.433E+01 -3.217E-03 .         *  .            .            .            .
  1.434E+01 -3.217E-03 .         *  .            .            .            .
  1.435E+01 -3.218E-03 .         *  .            .            .            .
  1.436E+01 -3.218E-03 .         *  .            .            .            .
  1.437E+01 -3.219E-03 .         *  .            .            .            .
  1.438E+01 -3.219E-03 .         *  .            .            .            .
  1.439E+01 -3.220E-03 .         *  .            .            .            .
  1.440E+01 -3.220E-03 .         *  .            .            .            .
  1.441E+01 -3.221E-03 .         *  .            .            .            .
  1.442E+01 -3.221E-03 .         *  .            .            .            .
  1.443E+01 -3.222E-03 .         *  .            .            .            .
  1.444E+01 -3.222E-03 .         *  .            .            .            .
  1.445E+01 -3.223E-03 .         *  .            .            .            .
  1.446E+01 -3.223E-03 .         *  .            .            .            .
  1.447E+01 -3.224E-03 .         *  .            .            .            .
  1.448E+01 -3.224E-03 .         *  .            .            .            .
  1.449E+01 -3.225E-03 .         *  .            .            .            .
  1.450E+01 -3.225E-03 .         *  .            .            .            .
  1.451E+01 -3.226E-03 .         *  .            .            .            .
  1.452E+01 -3.226E-03 .         *  .            .            .            .
  1.453E+01 -3.227E-03 .         *  .            .            .            .
  1.454E+01 -3.227E-03 .         *  .            .            .            .
  1.455E+01 -3.228E-03 .         *  .            .            .            .
  1.456E+01 -3.228E-03 .         *  .            .            .            .
  1.457E+01 -3.229E-03 .         *  .            .            .            .
  1.458E+01 -3.229E-03 .         *  .            .            .            .
  1.459E+01 -3.230E-03 .         *  .            .            .            .
  1.460E+01 -3.230E-03 .         *  .            .            .            .
  1.461E+01 -3.231E-03 .         *  .            .            .            .
  1.462E+01 -3.231E-03 .         *  .            .            .            .
  1.463E+01 -3.232E-03 .         *  .            .            .            .
  1.464E+01 -3.232E-03 .         *  .            .            .            .
  1.465E+01 -3.233E-03 .         *  .            .            .            .
  1.466E+01 -3.233E-03 .         *  .            .            .            .
  1.467E+01 -3.234E-03 .         *  .            .            .            .
  1.468E+01 -3.234E-03 .         *  .            .            .            .
  1.469E+01 -3.235E-03 .         *  .            .            .            .
  1.470E+01 -3.235E-03 .         *  .            .            .            .
  1.471E+01 -3.236E-03 .         *  .            .            .            .
  1.472E+01 -3.236E-03 .         *  .            .            .            .
  1.473E+01 -3.237E-03 .         *  .            .            .            .
  1.474E+01 -3.237E-03 .         *  .            .            .            .
  1.475E+01 -3.238E-03 .         *  .            .            .            .
  1.476E+01 -3.238E-03 .         *  .            .            .            .
  1.477E+01 -3.239E-03 .         *  .            .            .            .
  1.478E+01 -3.239E-03 .         *  .            .            .            .
  1.479E+01 -3.240E-03 .         *  .            .            .            .
  1.480E+01 -3.240E-03 .         *  .            .            .            .
  1.481E+01 -3.241E-03 .         *  .            .            .            .
  1.482E+01 -3.241E-03 .         *  .            .            .            .
  1.483E+01 -3.242E-03 .         *  .            .            .            .
  1.484E+01 -3.242E-03 .         *  .            .            .            .
  1.485E+01 -3.243E-03 .         *  .            .            .            .
  1.486E+01 -3.243E-03 .         *  .            .            .            .
  1.487E+01 -3.244E-03 .         *  .            .            .            .
  1.488E+01 -3.244E-03 .         *  .            .            .            .
  1.489E+01 -3.245E-03 .         *  .            .            .            .
  1.490E+01 -3.245E-03 .         *  .            .            .            .
  1.491E+01 -3.246E-03 .         *  .            .            .            .
  1.492E+01 -3.246E-03 .         *  .            .            .            .
  1.493E+01 -3.247E-03 .         *  .            .            .            .
  1.494E+01 -3.247E-03 .         *  .            .            .            .
  1.495E+01 -3.248E-03 .         *  .            .            .            .
  1.496E+01 -3.248E-03 .         *  .            .            .            .
  1.497E+01 -3.249E-03 .         *  .            .            .            .
  1.498E+01 -3.249E-03 .         *  .            .            .            .
  1.499E+01 -3.250E-03 .         *  .            .            .            .
  1.500E+01 -3.250E-03 .         *  .            .            .            .
                       - - - - - - - - - - - - - - - - - - - - - - - - - - - 



**** 03/29/22 15:11:54 ******* PSpice Lite (March 2016) ******* ID# 10813 ****

  


 ****     SMALL SIGNAL BIAS SOLUTION       TEMPERATURE =   27.000 DEG C


******************************************************************************



 NODE   VOLTAGE     NODE   VOLTAGE     NODE   VOLTAGE     NODE   VOLTAGE


(    1)   15.0000  (    2)    6.0000  (    3)    8.0000  




    VOLTAGE SOURCE CURRENTS
    NAME         CURRENT

    vdd         -2.800E-03
    vo          -2.900E-03

    TOTAL POWER DISSIPATION   6.52E-02  WATTS


**** 03/29/22 15:11:54 ******* PSpice Lite (March 2016) ******* ID# 10813 ****

  


 ****     OPERATING POINT INFORMATION      TEMPERATURE =   27.000 DEG C


******************************************************************************






**** MOSFETS


NAME         m1          m2        
MODEL        aaa         bbb       
ID           2.80E-03    2.90E-03 
VGS          6.00E+00    6.00E+00 
VDS          6.00E+00    8.00E+00 
VBS          0.00E+00    0.00E+00 
VTH          1.00E+00    1.00E+00 
VDSAT        5.00E+00    5.00E+00 
Lin0/Sat1   -1.00E+00   -1.00E+00 
if          -1.00E+00   -1.00E+00 
ir          -1.00E+00   -1.00E+00 
TAU         -1.00E+00   -1.00E+00 
GM           1.12E-03    1.16E-03 
GDS          5.00E-05    5.00E-05 
GMB          0.00E+00    0.00E+00 
CBD          0.00E+00    0.00E+00 
CBS          0.00E+00    0.00E+00 
CGSOV        0.00E+00    0.00E+00 
CGDOV        0.00E+00    0.00E+00 
CGBOV        0.00E+00    0.00E+00 
CGS          0.00E+00    0.00E+00 
CGD          0.00E+00    0.00E+00 
CGB          0.00E+00    0.00E+00 

          JOB CONCLUDED

**** 03/29/22 15:11:54 ******* PSpice Lite (March 2016) ******* ID# 10813 ****

  


 ****     JOB STATISTICS SUMMARY


******************************************************************************



  Total job time (using Solver 1)   =         .08
