
**** 03/25/22 13:09:21 ******* PSpice Lite (March 2016) ******* ID# 10813 ****

  


 ****     CIRCUIT DESCRIPTION


******************************************************************************



vcc 1 0 dc 15v
iref 1 2 dc 1m
vo 3 0 dc 8v
m4 3 2 4 4 aaa
m1 2 4 0 0 aaa
m2 4 4 0 0 aaa
.model aaa nmos(kp=20u vto=1 lambda=0.02 l=10u w=100u)
*.model bbb nmos(kp=20u vto=1 lambda=0.02)
*.model ccc nmos(kp=20u vto=1 lambda=0.02)
.op
.dc vo 0 15 0.001
.plot dc i(vo)
.probe
.end

**** 03/25/22 13:09:21 ******* PSpice Lite (March 2016) ******* ID# 10813 ****

  


 ****     MOSFET MODEL PARAMETERS


******************************************************************************




               aaa             
               NMOS            
       LEVEL    1            
           L   10.000000E-06 
           W  100.000000E-06 
         VTO    1            
          KP   20.000000E-06 
       GAMMA    0            
         PHI     .6          
      LAMBDA     .02         
          IS   10.000000E-15 
          JS    0            
          PB     .8          
        PBSW     .8          
          CJ    0            
        CJSW    0            
        CGSO    0            
        CGDO    0            
        CGBO    0            
         TOX    0            
          XJ    0            
       UCRIT   10.000000E+03 
      DIOMOD    1            
         VFB    0            
        LETA    0            
        WETA    0            
          U0    0            
        TEMP    0            
         VDD    5            
       XPART    0            


ERROR -- Convergence problem in DC sweep


  Last node voltages tried were:

 NODE   VOLTAGE     NODE   VOLTAGE     NODE   VOLTAGE     NODE   VOLTAGE


(    1)    6.9510  (    2) 81.92E+06  (    3)     .4643  (    4)     .4643  


  These devices failed to converge:
    m4        

**** Interrupt ****
