
**** 04/26/22 19:56:59 ******* PSpice Lite (March 2016) ******* ID# 10813 ****

  


 ****     CIRCUIT DESCRIPTION


******************************************************************************



vi 1 0 sin(0v 5v 100hz)
vb 3 0 dc -5v
vg 2 0 dc 5v
rl 4 0 100k
m1 1 2 4 3 aaa l=10u w=50u
.model aaa nmos(kp=20u vto=1v lambda=0)
.tran 0.01ms 40ms 0ms 0.01ms
.probe
.end

**** 04/26/22 19:56:59 ******* PSpice Lite (March 2016) ******* ID# 10813 ****

  


 ****     MOSFET MODEL PARAMETERS


******************************************************************************




               aaa             
               NMOS            
       LEVEL    1            
           L  100.000000E-06 
           W  100.000000E-06 
         VTO    1            
          KP   20.000000E-06 
       GAMMA    0            
         PHI     .6          
      LAMBDA    0            
          IS   10.000000E-15 
          JS    0            
          PB     .8          
        PBSW     .8          
          CJ    0            
        CJSW    0            
        CGSO    0            
        CGDO    0            
        CGBO    0            
         TOX    0            
          XJ    0            
       UCRIT   10.000000E+03 
      DIOMOD    1            
         VFB    0            
        LETA    0            
        WETA    0            
          U0    0            
        TEMP    0            
         VDD    5            
       XPART    0            


**** 04/26/22 19:56:59 ******* PSpice Lite (March 2016) ******* ID# 10813 ****

  


 ****     INITIAL TRANSIENT SOLUTION       TEMPERATURE =   27.000 DEG C


******************************************************************************



 NODE   VOLTAGE     NODE   VOLTAGE     NODE   VOLTAGE     NODE   VOLTAGE


(    1)    0.0000  (    2)    5.0000  (    3)   -5.0000  (    4)-12.22E-09  




    VOLTAGE SOURCE CURRENTS
    NAME         CURRENT

    vi          -9.898E-12
    vb           1.002E-11
    vg           0.000E+00

    TOTAL POWER DISSIPATION   5.01E-11  WATTS



          JOB CONCLUDED

**** 04/26/22 19:56:59 ******* PSpice Lite (March 2016) ******* ID# 10813 ****

  


 ****     JOB STATISTICS SUMMARY


******************************************************************************



  Total job time (using Solver 1)   =         .06
