
**** 03/22/22 00:01:46 ******* PSpice Lite (March 2016) ******* ID# 10813 ****

  


 ****     CIRCUIT DESCRIPTION


******************************************************************************



vcc 1 0 dc 10v
vbb 5 0 dc 3v
vi 4 5 dc 1mv 
rc 1 2 2k
rbb 4 3 100k

q1 2 3 0 npntra
.model npntra npn(is=1.8e-15 bf=100)
.tf v(2) vi
.op
.end

**** 03/22/22 00:01:46 ******* PSpice Lite (March 2016) ******* ID# 10813 ****

  


 ****     BJT MODEL PARAMETERS


******************************************************************************




               npntra          
               NPN             
       LEVEL    1            
          IS    1.800000E-15 
          BF  100            
          NF    1            
          BR    1            
          NR    1            
         ISS    0            
          RE    0            
          RC    0            
         CJE    0            
         VJE     .75         
         CJC    0            
         VJC     .75         
         MJC     .33         
        XCJC    1            
         CJS    0            
         VJS     .75         
          KF    0            
          AF    1            
          CN    2.42         
           D     .87         


**** 03/22/22 00:01:46 ******* PSpice Lite (March 2016) ******* ID# 10813 ****

  


 ****     SMALL SIGNAL BIAS SOLUTION       TEMPERATURE =   27.000 DEG C


******************************************************************************



 NODE   VOLTAGE     NODE   VOLTAGE     NODE   VOLTAGE     NODE   VOLTAGE


(    1)   10.0000  (    2)    5.4395  (    3)     .7208  (    4)    3.0010      

(    5)    3.0000  




    VOLTAGE SOURCE CURRENTS
    NAME         CURRENT

    vcc         -2.280E-03
    vbb         -2.280E-05
    vi          -2.280E-05

    TOTAL POWER DISSIPATION   2.29E-02  WATTS


**** 03/22/22 00:01:46 ******* PSpice Lite (March 2016) ******* ID# 10813 ****

  


 ****     OPERATING POINT INFORMATION      TEMPERATURE =   27.000 DEG C


******************************************************************************






**** BIPOLAR JUNCTION TRANSISTORS


NAME         q1        
MODEL        npntra    
IB           2.28E-05 
IC           2.28E-03 
VBE          7.21E-01 
VBC         -4.72E+00 
VCE          5.44E+00 
BETADC       1.00E+02 
GM           8.82E-02 
RPI          1.13E+03 
RX           0.00E+00 
RO           1.00E+12 
CBE          0.00E+00 
CBC          0.00E+00 
CJS          0.00E+00 
BETAAC       1.00E+02 
CBX/CBX2     0.00E+00 
FT/FT2       1.40E+18 






 ****     SMALL-SIGNAL CHARACTERISTICS


      V(2)/vi = -1.978E+00

      INPUT RESISTANCE AT vi =  1.011E+05

      OUTPUT RESISTANCE AT V(2) =  2.000E+03


          JOB CONCLUDED

**** 03/22/22 00:01:46 ******* PSpice Lite (March 2016) ******* ID# 10813 ****

  


 ****     JOB STATISTICS SUMMARY


******************************************************************************



  Total job time (using Solver 1)   =        0.00
