
**** 03/22/22 15:11:59 ******* PSpice Lite (March 2016) ******* ID# 10813 ****

  


 ****     CIRCUIT DESCRIPTION


******************************************************************************



vcc 4 0 dc 10v
vs 1 0 ac 10mv
rs 1 2 1k
r1 7 0 2k
rc 4 5 1k
re 6 0 1k
rl 4 3 50k
r2 3 0 50k
c1 2 3 1gf
c2 5 7 1gf
c3 6 0 1gf
q1 5 3 6 npntr
.model npntr npn(is=1.8e-15 bf=100 vaf=100)
.op
.ac lin 1 1khz 1khz
.print ac vm(1) vp(1) vm(7) vp(7)
.print ac vm(3) vp(3) im(vs) ip(vs) im(r1)
.end

**** 03/22/22 15:11:59 ******* PSpice Lite (March 2016) ******* ID# 10813 ****

  


 ****     BJT MODEL PARAMETERS


******************************************************************************




               npntr           
               NPN             
       LEVEL    1            
          IS    1.800000E-15 
          BF  100            
          NF    1            
         VAF  100            
          BR    1            
          NR    1            
         ISS    0            
          RE    0            
          RC    0            
         CJE    0            
         VJE     .75         
         CJC    0            
         VJC     .75         
         MJC     .33         
        XCJC    1            
         CJS    0            
         VJS     .75         
          KF    0            
          AF    1            
          CN    2.42         
           D     .87         


**** 03/22/22 15:11:59 ******* PSpice Lite (March 2016) ******* ID# 10813 ****

  


 ****     SMALL SIGNAL BIAS SOLUTION       TEMPERATURE =   27.000 DEG C


******************************************************************************



 NODE   VOLTAGE     NODE   VOLTAGE     NODE   VOLTAGE     NODE   VOLTAGE


(    1)    0.0000  (    2)    0.0000  (    3)    4.1689  (    4)   10.0000      

(    5)    6.5949  (    6)    3.4384  (    7)    0.0000  




    VOLTAGE SOURCE CURRENTS
    NAME         CURRENT

    vcc         -3.522E-03
    vs           0.000E+00

    TOTAL POWER DISSIPATION   3.52E-02  WATTS


**** 03/22/22 15:11:59 ******* PSpice Lite (March 2016) ******* ID# 10813 ****

  


 ****     OPERATING POINT INFORMATION      TEMPERATURE =   27.000 DEG C


******************************************************************************






**** BIPOLAR JUNCTION TRANSISTORS


NAME         q1        
MODEL        npntr     
IB           3.32E-05 
IC           3.41E-03 
VBE          7.31E-01 
VBC         -2.43E+00 
VCE          3.16E+00 
BETADC       1.02E+02 
GM           1.32E-01 
RPI          7.78E+02 
RX           0.00E+00 
RO           3.01E+04 
CBE          0.00E+00 
CBC          0.00E+00 
CJS          0.00E+00 
BETAAC       1.02E+02 
CBX/CBX2     0.00E+00 
FT/FT2       2.09E+18 


**** 03/22/22 15:11:59 ******* PSpice Lite (March 2016) ******* ID# 10813 ****

  


 ****     AC ANALYSIS                      TEMPERATURE =   27.000 DEG C


******************************************************************************



  FREQ        VM(1)       VP(1)       VM(7)       VP(7)       


   1.000E+03   1.000E-02   0.000E+00   3.692E-01  -1.800E+02

**** 03/22/22 15:11:59 ******* PSpice Lite (March 2016) ******* ID# 10813 ****

  


 ****     AC ANALYSIS                      TEMPERATURE =   27.000 DEG C


******************************************************************************



  FREQ        VM(3)       VP(3)       IM(vs)      IP(vs)      IM(r1)      


   1.000E+03   4.300E-03  -6.464E-13   5.700E-06  -1.800E+02   1.846E-04


          JOB CONCLUDED

**** 03/22/22 15:11:59 ******* PSpice Lite (March 2016) ******* ID# 10813 ****

  


 ****     JOB STATISTICS SUMMARY


******************************************************************************



  Total job time (using Solver 1)   =        0.00
