
**** 10/06/22 10:14:45 ******* PSpice Lite (March 2016) ******* ID# 10813 ****

  


 ****     CIRCUIT DESCRIPTION


******************************************************************************



vi 1 0 sin(0v 10v 60hz)
vr1 4 0 dc 5v
vr2 6 0 dc -5v
r1 1 2 10k
r2 2 3 10k
r3 2 5 10k
d1 3 4 dio
d2 6 5 dio
.model dio d(is=0.01pa n=1.0675)
.tran 0.01ms 40ms 0ms 0.01ms
.probe
.end

**** 10/06/22 10:14:45 ******* PSpice Lite (March 2016) ******* ID# 10813 ****

  


 ****     Diode MODEL PARAMETERS


******************************************************************************




               dio             
          IS   10.000000E-15 
           N    1.0675       


**** 10/06/22 10:14:45 ******* PSpice Lite (March 2016) ******* ID# 10813 ****

  


 ****     INITIAL TRANSIENT SOLUTION       TEMPERATURE =   27.000 DEG C


******************************************************************************



 NODE   VOLTAGE     NODE   VOLTAGE     NODE   VOLTAGE     NODE   VOLTAGE


(    1)    0.0000  (    2)    0.0000  (    3) 50.10E-09  (    4)    5.0000      

(    5)-50.10E-09  (    6)   -5.0000  




    VOLTAGE SOURCE CURRENTS
    NAME         CURRENT

    vi           0.000E+00
    vr1         -5.010E-12
    vr2          5.010E-12

    TOTAL POWER DISSIPATION   5.01E-11  WATTS



          JOB CONCLUDED

**** 10/06/22 10:14:45 ******* PSpice Lite (March 2016) ******* ID# 10813 ****

  


 ****     JOB STATISTICS SUMMARY


******************************************************************************



  Total job time (using Solver 1)   =         .05
